42
Energy:            -184.2166
Ar              0.3561893             -0.2056212              0.5274455
Ar              2.1620625              1.7174668              2.9997483
Ar             -3.6847265              4.3454914              1.0744866
Ar              2.3141314             -1.5787284             -2.1982719
Ar             -2.5442385              1.3392636             -0.5783751
Ar              0.6252522             -3.8520455              0.5293970
Ar             -2.5599181             -2.0148873              1.5202074
Ar             -3.6659414             -4.6755458             -0.8695058
Ar              3.5236431             -1.5966883              1.5128603
Ar              0.1798688              3.6437035              0.1988304
Ar              2.5832287              4.5157258             -2.6465169
Ar              0.2849946              1.4509808             -2.9786385
Ar              4.3682437             -4.3176462             -0.8819768
Ar             -6.2069176             -2.8955416              1.7506501
Ar              4.4696801             -0.4678647              4.9364118
Ar             -1.3860636             -1.9642470             -2.2083815
Ar             -4.8795393             -1.1914216             -1.2229734
Ar              3.1653888              1.5754289             -0.5792818
Ar             -1.5735641              1.7654052              3.0172937
Ar             -5.0980773              0.7613018              1.9915269
Ar             -5.7695656              2.4826698             -1.7825177
Ar             -3.3485107              0.6802135             -4.1310987
Ar              0.4521692             -1.5458745              3.9171564
Ar              0.7301083              5.0353055              3.6199342
Ar             -3.3426267             -0.9399277              4.9475833
Ar              4.0842472              1.1547052             -4.0984679
Ar              5.9447996             -0.7107935             -1.2731134
Ar              5.7104451              1.4400834              1.9665224
Ar             -4.3676389             -3.0741422             -4.3241521
Ar              3.7112001              4.7493688              1.1154802
Ar              6.2316828              3.2292365             -1.5203608
Ar             -7.1396364             -0.3630330             -3.9603419
Ar             -7.4178658             -3.6849830             -1.8757109
Ar              4.7126358              3.8610153              4.6335384
Ar              0.9827023             -4.9043674             -3.0507659
Ar             -2.3049576              4.2761156             -2.6913289
Ar             -7.4977066              3.5242908              1.3519582
Ar             -8.1738608             -0.0528244             -0.1555001
Ar              7.4660384              4.6529015              1.7991761
Ar              7.1904707             -1.9680850              2.0629424
Ar              5.0574893             -2.7054319             -4.3594949
Ar              8.9204635              1.1539206              0.2148354
