42
Energy:            -187.2287
Ar             -1.2753370             -0.0823861             -0.6909033
Ar              1.7849283             -2.2399310              0.4221088
Ar              0.1898878              3.1733950             -1.5620326
Ar              3.4937661              4.3116540              0.0678904
Ar             -4.2684588             -2.1681030             -1.5172604
Ar              1.5624300              1.3871783              1.3022108
Ar              5.2208981             -1.6516325             -0.9338424
Ar             -4.0716316             -0.9709535              2.0458814
Ar             -1.6338515             -3.3818543              0.7442315
Ar             -2.0525049              2.1703431              1.9447286
Ar              2.0497836             -0.0031511             -2.3253941
Ar             -3.0193015             -5.7834942             -1.6875933
Ar              2.5882160              1.9553379             -5.3643569
Ar              0.5784793              6.7766814             -1.4262800
Ar             -3.1922484              3.6875349             -3.3402108
Ar             -5.0537540             -4.6024884              1.3792089
Ar              3.5266751              3.6913769              3.7380413
Ar             -1.9414037             -6.8254372              1.9354531
Ar              0.4168870              4.9589493              1.9587470
Ar             -4.6229907              1.5871740             -0.6602078
Ar             -0.7532895             -2.8940901             -2.8987189
Ar             -2.6515259             -3.7845872              4.2779795
Ar             -0.9332616              0.8704405             -4.3080747
Ar             -0.4274397             -0.9796393              3.2397407
Ar              5.1381755              1.9594317             -2.2703094
Ar             -2.7001238              5.0056883              4.1503467
Ar              1.3927702             -1.6497445             -5.7465250
Ar             -3.1345905              0.7463506              5.2462069
Ar              2.9190383              0.0627655              4.5408456
Ar             -2.7267376              5.2126597             -0.0012034
Ar              2.8656106             -3.6949063             -2.9495416
Ar              4.1538536             -5.2097717              0.2607549
Ar              5.1925111              1.1126608              1.5209207
Ar             -0.0474896              4.6464866             -4.9939160
Ar             -6.7131790             -4.9699657             -2.0212551
Ar             -4.5951420              0.2929172             -4.2484209
Ar              3.3066247              5.0859712             -3.4943223
Ar              1.0567021             -4.6197932              3.0735636
Ar              4.6974776             -2.5425833              2.7280590
Ar              0.1580492              2.5165853              4.8507162
Ar              4.9197036             -0.9704562             -4.6319810
Ar              0.6447643             -5.7966739             -0.7306031
