42
Energy:            -183.2972
Ar             -0.8733557             -0.5634365             -0.1648326
Ar              2.2265456             -0.2662005              1.8008672
Ar             -3.2527262              0.6086606             -2.9138444
Ar             -4.5301393             -0.3908466              3.3525374
Ar              2.3462727              0.4545502             -1.7366888
Ar              1.8497769             -3.0798849             -0.5363493
Ar              2.4617231              3.5515961              0.2109298
Ar             -4.2660405             -1.9313681             -0.3978178
Ar             -1.0775390             -1.6991802              3.2902185
Ar             -0.4725903              1.9812684              2.4617102
Ar              2.1386848             -3.5748338              3.3366344
Ar             -0.6906079              2.7909765             -1.4395110
Ar             -1.1809860             -2.8621595             -2.8939348
Ar              3.3434084              2.8311533              3.6922675
Ar              1.8883200              3.6701972             -3.8338387
Ar             -2.9854031              0.4309864             -6.7025418
Ar             -3.6961901              1.7989168              0.5659460
Ar              5.1359260             -2.6147856              1.0600655
Ar              2.3710736             -2.5530485             -4.1589544
Ar             -3.5775845              3.3473566              4.0040748
Ar             -1.7974289              3.5859210             -4.9482392
Ar              0.0398759              0.3835101             -4.4935311
Ar              1.4676335              0.1868503              5.3669684
Ar             -1.4089835             -4.2638148              0.5780581
Ar              5.5873886             -1.0544591             -2.3610509
Ar              0.2364055             -2.9964760              6.6583208
Ar             -0.7713650             -2.6355608             -6.5588400
Ar             -2.0939478              0.6128343              6.0556042
Ar              4.9296096             -0.6999245              4.2795974
Ar             -4.4420339             -4.0758041              2.6816387
Ar             -4.3926831             -2.4469119             -4.6733404
Ar              4.7857681             -4.7261426             -2.1337749
Ar             -1.8393033              5.1726015              1.1491485
Ar             -3.4494523             -2.8839678              6.0541207
Ar             -5.5327903              2.6665299             -5.0166239
Ar              5.4347463              1.1487068              0.8717483
Ar              0.0410073              3.7611629              5.6045563
Ar              5.2312368              2.7882577             -2.4287114
Ar              3.7575331              0.7121539             -5.2464170
Ar             -3.9986517              4.4324027             -2.0194224
Ar             -1.1789922             -5.3727579              4.1450537
Ar              4.9818146              4.2285624             -5.9339768
