42
Energy:            -186.8007
Ar              0.6230316             -1.2331237             -1.4614454
Ar              3.0278996             -3.0146750              0.5431039
Ar             -2.3391092             -0.0303365              0.5333050
Ar             -2.5524269              3.5394016             -0.5838765
Ar              3.8830398              0.4603599             -0.2768223
Ar             -0.6059012             -3.4012814              1.0356615
Ar              0.6539473              2.1312165             -0.5344642
Ar              2.7576140              3.1453687              2.2643597
Ar              3.5325559              4.0696991             -1.5252067
Ar             -2.6799705             -2.8040527             -1.9076990
Ar             -2.8524115              6.1407908              1.9682353
Ar             -2.1905545             -1.7363269              3.8659482
Ar              4.8334869             -5.1397048              2.8984975
Ar             -0.1551612              4.3322836             -3.3922307
Ar              0.4643029              5.7060215              0.1415022
Ar             -1.5923279             -5.8181204              3.5523691
Ar             -6.3426156             -2.2642266             -1.1919126
Ar             -1.0627358              2.7630024              2.7343145
Ar             -1.8638056             -6.5070770             -0.4512041
Ar              3.7370429             -2.1804066             -3.1133820
Ar              0.9842747             -4.7742619             -2.1630800
Ar              1.5504542             -6.3841957              1.3266480
Ar             -4.7844832              2.8238080              2.2152685
Ar             -1.8989460              0.8875859             -3.0899309
Ar              4.4711820             -5.9043910             -1.1561713
Ar             -5.3184572              1.2804127             -1.3340813
Ar             -2.5790520              6.9462778             -1.8845528
Ar              4.4898353             -1.0387037              3.2948866
Ar              5.4013569              1.4083417             -3.5719479
Ar             -4.0342528              3.8906697             -3.9132731
Ar              1.7476067              1.0860602             -3.9883988
Ar             -5.5848501             -0.7672056              2.1628027
Ar             -4.7490736             -1.0484353             -4.4250390
Ar             -5.8102489              5.1519811             -0.6593538
Ar             -4.1856222             -4.0884013              1.3253553
Ar             -2.0162403             -5.5904768             -4.2552199
Ar             -5.1282635             -5.6668348             -2.0892910
Ar              3.2353566              4.2567443             -5.2468536
Ar              1.0114842             -0.2838824              2.2273504
Ar             -0.3573812             -2.1652332             -4.8390030
Ar              0.5570747              5.9175635              3.8666602
Ar              1.5329931             -3.5466526              4.0244743
