42
Energy:            -188.7246
Ar             -0.6485826              1.1660987              0.8304663
Ar              1.5276540             -1.5201424             -1.7053376
Ar              1.1224968             -1.9457957              1.8294552
Ar             -2.1886501             -1.4914291              2.9718797
Ar             -1.7166696             -2.7049696             -0.5145479
Ar              1.5909572              2.0086962             -2.0504009
Ar             -1.8727428              0.7466198             -2.4643656
Ar              2.1771442              4.7579686              0.3624088
Ar             -0.9550644              4.5907366             -1.6311059
Ar              1.4032470             -4.9662088             -0.3382798
Ar             -3.8783682              3.6030646             -3.8452445
Ar              0.5178330             -0.3677053             -5.0573267
Ar             -5.3961222              0.1243683             -3.2359922
Ar             -5.6445785             -1.0929849              4.0899249
Ar              3.1177952              1.1324475              1.1982020
Ar              2.2948328              3.8396616              3.9439024
Ar             -3.4061013              1.9045090              3.3834471
Ar             -0.9822749             -4.9820495              2.5732225
Ar              5.0385195              3.4625476             -1.6228991
Ar             -4.5786886             -4.0194141              1.8092489
Ar              4.5725261             -2.4182399              0.8379988
Ar              0.4410108              0.7366691              4.2849588
Ar              3.7067118             -1.0980678              4.3039668
Ar              4.8600619             -0.1589218             -2.1521508
Ar             -5.2308228             -3.3905431             -1.8239707
Ar              0.9013113             -4.1374855             -4.1589186
Ar             -0.2853831              3.2297252             -5.0631804
Ar              2.3378298              5.3853230             -3.4333997
Ar              4.3265955             -4.0282394             -2.4773300
Ar             -4.4971209             -0.4275580              0.3847747
Ar             -1.1810114              3.6070863              5.9038449
Ar              0.3232105             -2.8114377              5.4126253
Ar              3.8566186             -1.7941161             -5.3773518
Ar             -2.9464814              0.7263027             -6.1066284
Ar             -2.5125665             -0.2173312              6.4125533
Ar             -2.4844686             -2.4749411             -4.1745087
Ar              3.5494134              2.0346003             -5.0947517
Ar             -1.0624467              4.5532570              2.2072350
Ar              2.8242827             -4.8411710              3.2575067
Ar             -3.3454069             -3.9113548              5.4706969
Ar             -3.9002368              3.1138268             -0.1107064
Ar              3.6388526             -3.9039760              6.8377600
