42
Energy:            -182.3144
Ar             -0.3638213             -1.0105185             -1.0740337
Ar              2.8514950             -1.7937190              2.9020499
Ar             -3.1191915             -0.8122403              1.2241370
Ar             -1.8779098              2.2503122             -0.6133508
Ar              1.0374858              1.7601159             -3.0821067
Ar              2.2291597             -3.4663743             -0.3862047
Ar              2.9469926              0.2060204             -0.2575456
Ar             -3.9259447              3.7611883             -3.3694995
Ar             -2.3303455              0.3677821             -3.9161275
Ar              3.5236781             -5.2279745             -3.3423974
Ar              5.3379157             -2.1090162             -1.9073273
Ar              1.4965685              3.5360485              0.2207268
Ar              0.5016252              4.0846893              3.7907784
Ar             -1.4507299             -4.2159645              0.4154436
Ar             -2.8807655              2.6722322              2.9669809
Ar             -4.2190845             -3.8046335              3.1270492
Ar              3.2424279              4.7966636             -2.8295010
Ar             -0.5216341              5.1367592             -2.5993779
Ar             -3.6405282             -0.4574788              4.8653172
Ar             -3.6354420             -2.6167689             -2.0853497
Ar              1.4968102             -5.4746827              2.5497563
Ar              0.5955575             -6.7468028             -1.3169205
Ar              5.2406647              3.1785345             -0.0316516
Ar              3.5443105              1.9114876              3.0735547
Ar              6.9617043             -5.4814502             -1.6997719
Ar              3.9844176             -6.9773688              0.0567606
Ar              4.7879417              1.3579525             -3.2950645
Ar             -1.5543292              5.6172532              0.9993520
Ar             -6.4722400             -2.2626202              0.4565726
Ar              3.6791111              5.6231168              2.4527073
Ar             -5.2115085              0.7535802             -1.4491576
Ar             -0.7187240             -2.5774348              3.6565403
Ar              5.4961476             -3.9218379              1.4472583
Ar              5.4305785              6.9126096             -0.6265473
Ar              0.1361227              0.6922982              2.1887216
Ar             -4.9213528             -5.6349763             -0.0494460
Ar             -5.0060918              4.1281645              0.2498913
Ar              0.0091667             -3.6623862             -3.4900649
Ar             -6.1656328              1.0470814              2.2561813
Ar             -2.6988331             -6.1586245             -2.9702248
Ar              1.6486905              7.2204399             -0.3057968
Ar              6.1939545             -0.2453347              1.3794503
