42
Energy:            -177.7185
Ar              0.4185205             -0.0993353             -0.3850338
Ar             -2.8510788             -0.9606638              0.3214262
Ar             -0.2097114             -3.5993198              0.7766680
Ar             -1.5104380              2.5382385              1.2404003
Ar              2.4105024             -2.7286049             -1.8370600
Ar              2.1980067              2.0479651              2.0062659
Ar              1.0429810              3.3928468             -1.3492975
Ar             -2.0950080              1.2240341             -2.6268707
Ar             -3.3638564             -3.2311973              3.0636910
Ar             -1.2315579             -2.4426920             -2.8013230
Ar              3.7133307              0.7037574             -1.1787297
Ar              2.9760325             -1.6414273              1.6760631
Ar             -3.8208193             -4.3315808             -0.6305536
Ar              4.1187695             -5.0158322              0.5351379
Ar             -3.9824072              0.7381480              3.3175560
Ar             -4.6058289              4.3835466              2.4812038
Ar             -0.3915223             -0.6096996              3.2081431
Ar             -4.9803722             -1.1761054             -2.6337157
Ar             -2.6828579              4.6943684             -1.6192139
Ar              6.0653610             -2.0684491             -0.7878452
Ar              4.6944407              4.0495155             -0.1492074
Ar              5.9929867              0.8455396              1.6444075
Ar             -6.3189376             -1.7192711              0.9454113
Ar              1.2585300              0.3020812             -3.9687573
Ar             -4.9158614              1.9219702             -0.2256491
Ar              3.9531184              0.1602476              4.7549108
Ar              3.7956613              3.1085257             -3.9235811
Ar             -8.1292164              0.6428911             -1.4320864
Ar              4.8270131             -0.9384214             -4.2437400
Ar              6.2413131             -2.6989149              2.9834094
Ar              5.0911376             -4.6639282             -3.4103346
Ar             -7.6519083             -0.2142707             -5.1075054
Ar             -0.2781023              3.6938883             -4.7780765
Ar              6.8047551              1.8484946             -5.8201258
Ar             -2.7479979             -1.2610589              6.1947806
Ar              1.8756279             -3.1296478             -5.4322562
Ar             -6.4446685             -1.6059637              4.7137297
Ar              5.0057912              3.7942852              3.7217944
Ar              7.1106713              1.5247669             -2.0524105
Ar             -7.5161976              1.5302852              2.4164315
Ar             -4.6716805             -4.5459830              6.3451011
Ar             -5.3778796              2.5378543             -3.8163626
