42
Energy:            -181.4271
Ar             -0.3778181             -0.0879973              0.1402360
Ar             -0.2423425             -3.3114280             -2.1166130
Ar              1.9781586              2.5778871             -3.8014906
Ar              1.7054932             -3.0922343              1.0006586
Ar             -0.9925293             -2.1835874              3.2749692
Ar             -0.3310219              3.0709158              2.2060678
Ar              1.9650769              0.1266008              2.9091396
Ar             -0.7182124              0.0875595             -3.4803756
Ar              2.6063694             -0.8244912             -1.8723346
Ar             -3.1822965              0.6551478              2.3926950
Ar              3.3187030              3.5259244              3.3558475
Ar             -0.8924569              3.2780284             -1.5279735
Ar             -3.1236074             -2.5840318              0.3024929
Ar              4.4699004             -2.6464718              3.4532955
Ar              1.6569004             -2.1834672             -5.2294441
Ar              2.4743502              2.4463259             -0.1351647
Ar              5.0960826             -3.4292119             -0.3736810
Ar              5.0938107              0.0745380              0.9158473
Ar             -6.4003702              2.4120589              3.0270668
Ar             -3.8493562              1.0696611             -5.1159228
Ar             -0.7985178              0.9832211              5.3027190
Ar              4.1027900              0.5457529             -6.0403283
Ar             -3.7398131              3.9803739              0.7893432
Ar             -4.2600164              4.1150283             -2.9842943
Ar             -4.7115437             -2.5023961              3.7430424
Ar             -3.6740641              0.8124835             -1.2893236
Ar             -6.3788779             -3.7220624             -1.3020851
Ar              5.3501485              1.5377075             -2.5637136
Ar             -3.5968332             -2.3089242             -3.3324862
Ar              1.5732107             -1.9909263              5.9653585
Ar             -6.3481468             -0.6695604              0.8539844
Ar             -6.9262382              2.6858351             -0.7283088
Ar             -2.2454855             -2.2118142              6.7565012
Ar              5.2624888             -2.3228299             -3.9531113
Ar             -3.1893062              3.8352665              4.5179355
Ar              0.3769118              1.1021706             -6.8717292
Ar             -6.7630304             -0.3169035             -3.0057034
Ar             -4.5838849              0.6091904              5.8574587
Ar              7.8040047              0.2174538             -5.0962302
Ar             -5.7642047             -1.9509373             -6.3352091
Ar              7.8262551             -1.0597629             -1.4681863
Ar             -1.8801068             -1.8836781             -6.5625590
