42
Energy:            -186.5585
Ar              1.0979653             -1.7663631             -0.9738028
Ar             -3.6305869              1.5699248             -1.0084155
Ar              3.1976809             -2.0967266              2.0546061
Ar             -1.9453425             -1.1046492              0.7724762
Ar              4.3793617             -0.3269222             -1.4577778
Ar              2.0239197              1.2111459              1.2897614
Ar             -1.7018633              2.2636616              2.0020202
Ar              1.7071114             -5.3526766             -1.1114944
Ar             -1.8896284             -4.1307647             -1.3569169
Ar              0.0011531              2.0758955             -1.5323846
Ar              0.8963410              4.7662330              1.0376014
Ar             -2.3587520              4.9896747             -0.7809152
Ar             -0.1259242             -3.9650552              2.0508051
Ar              4.2241487              3.9512847              2.4768514
Ar              0.1028172             -3.6258218             -4.3906220
Ar              3.4673598              3.2723983             -1.3475808
Ar              3.1648548             -5.7978977              2.3706367
Ar              3.6997681             -3.2679201             -3.6488811
Ar             -5.0011727             -1.8671171             -1.2651153
Ar             -3.0652891             -2.0453011              4.4327427
Ar              0.1537950             -0.5201337              3.8211084
Ar             -2.1758623              5.7779499              2.9714039
Ar              3.8536870              6.7719398             -0.2055681
Ar             -5.1442163              0.0848517              2.0913008
Ar              3.6015853              0.5566530              4.7180401
Ar              1.4139842              3.3999145             -4.8811560
Ar             -5.2268918              0.5260907             -4.1735782
Ar             -2.3258614              3.0612570             -4.1872339
Ar              5.8327307              0.6516499              1.7357698
Ar             -7.2761944              1.2095374             -0.8669958
Ar             -4.1193647             -4.1043398              1.5949129
Ar              1.7191476             -0.1495733             -4.1890237
Ar             -3.8717003             -3.3631448             -4.5557728
Ar              4.8804348              1.8967491             -4.5077611
Ar             -5.2172392              3.8413158              1.3940145
Ar              5.2141752             -3.9477561             -0.3457047
Ar              0.8244806              5.9899141             -2.4094948
Ar             -1.7963297             -0.7135233             -3.1049636
Ar              0.9495259              3.2117514              4.4114644
Ar              1.9247015             -3.4736280              5.2524952
Ar             -5.6358533              4.1904753             -2.5906143
Ar              4.2906873              5.7382941             -3.9761179
