42
Energy:            -183.0188
Ar              2.1206933             -0.8980067             -0.3483455
Ar              1.9495535             -0.6007987             -4.0361832
Ar             -1.2343420             -1.3879459              1.0066045
Ar             -1.2438770              0.3641472             -2.1612738
Ar              1.4879615              2.7562340             -2.4658721
Ar              6.4702047              3.5917711              0.9611036
Ar             -1.9501650              3.7235162             -3.6636692
Ar             -0.2772579             -3.7426630              3.8390035
Ar             -3.7770399             -2.3761313             -2.1918795
Ar             -3.2314889              2.9420397             -0.1770325
Ar              0.1432620              2.0214671              0.9469096
Ar             -0.3500748             -6.9832544             -1.5562194
Ar              1.3023598             -4.3634005              0.6185840
Ar             -2.3803381             -4.7371630              0.5919678
Ar              4.7318955              1.4316335             -1.5027309
Ar              3.6888289              1.2795883              2.2387796
Ar             -0.2602803             -3.2304777             -2.4251564
Ar              1.5313876              3.6890878              4.0408284
Ar              2.8695375              4.3764835              0.5343385
Ar             -5.9692706             -4.0177495              0.3717695
Ar              3.2860095             -2.3254639              2.9698444
Ar              4.6198252              5.0287951             -2.6199903
Ar              2.9784217             -5.9689445              3.5732865
Ar              1.1325614              6.0695454             -4.0548812
Ar             -1.8019145              4.7749969              2.7726735
Ar             -3.8572400             -2.5859575              3.3442705
Ar              5.0106130              7.0631180              1.8223772
Ar             -4.8066508              1.1478538             -3.0498761
Ar             -4.9051663             -0.2967124              0.5559915
Ar             -3.8760135             -6.0386242             -2.5779790
Ar             -0.4581436              5.4571361             -0.6592090
Ar              4.9777635             -4.6033876              0.4835679
Ar             -2.8060178              1.1908600              3.2335820
Ar             -0.2994422             -7.3067797              2.3067878
Ar              4.9512980             -2.2044432             -2.4506707
Ar              6.1947509             -1.0510835              0.8894804
Ar              2.8612880             -5.2670643             -2.6533431
Ar              0.5993512             -0.0379439              4.0158803
Ar              2.5556476              7.7813143             -1.0193968
Ar              2.8775144             -7.7643126              0.2334681
Ar             -3.4239537             -8.3044738              0.4059219
Ar              1.1649739              7.0984483              2.4218713
