42
Energy:            -191.1911
Ar             -0.3090851              1.0333108              1.3511201
Ar              1.6808859              0.4622269             -2.0032897
Ar             -0.8199655              3.5983239              4.0282586
Ar              4.9087572             -1.1811807              4.1991276
Ar             -2.4539124             -1.7871586              1.9057273
Ar              0.5281401             -2.4987650             -0.1774398
Ar             -1.5689489             -0.9444514             -2.7650247
Ar             -0.9500937              2.8527385             -2.0579759
Ar             -1.4846544             -4.5446035             -3.1936905
Ar              4.4110972             -2.0411697             -1.8887288
Ar              2.4146632              3.7248731             -3.5803271
Ar             -4.3428523             -2.7901863             -1.0861040
Ar             -2.6955780              4.2605010              0.8690947
Ar             -3.5154310              0.8615870             -0.4007977
Ar              1.2142018             -2.2502529              3.4349564
Ar              3.1549615             -0.1750430              1.1284289
Ar              2.6855975              5.0148080              3.5824135
Ar             -1.2246240             -0.0964976              5.0771960
Ar              2.1765280              3.4433725              0.2376677
Ar             -3.8971245              1.5624641              3.1864762
Ar             -6.3954434              0.2626505             -2.4696834
Ar             -6.2184220             -0.8615014              1.4926251
Ar             -1.9885106             -5.2266221              0.4318152
Ar             -5.1245830             -4.4134021              2.2943782
Ar             -4.5290969              3.8410333             -2.4893337
Ar             -1.5667544              4.4840090             -5.2731376
Ar              2.2100620             -5.3411739             -1.6355784
Ar              6.7647553             -0.8325726              0.8680260
Ar             -1.4163818             -2.0185348             -6.3722708
Ar              1.5313223             -2.5220952             -4.1517291
Ar              2.1434446              1.3719514              4.2771110
Ar              0.2670539              1.1411367             -5.3290147
Ar              1.1909198             -5.7471521              2.1170955
Ar              5.3078914              2.4697369              2.3856883
Ar             -3.5054489              1.2325827             -4.9087220
Ar              3.9864463              0.3790262             -4.8590891
Ar              4.1520845             -3.6979179              1.3977782
Ar             -4.6651642             -2.3544715             -4.6843167
Ar             -6.4209431              2.8576617              0.6301153
Ar              5.1182720              1.7516341             -1.4459985
Ar             -1.7650642             -4.4469310              4.2794613
Ar             -4.6145730             -1.7620021              4.9178982
