42
Energy:            -185.4124
Ar              0.0354936              1.4288334              0.0452763
Ar             -3.4389273              1.0942078             -1.1102380
Ar              2.9267297             -0.5185089              1.4501033
Ar             -2.5262665              1.6515727              2.7127268
Ar              2.1490122             -0.4590546             -2.1779502
Ar              3.9508252              2.2873041             -0.6284961
Ar             -0.6173421              2.0365829             -3.5711527
Ar             -1.2971013             -1.4730610             -2.6931283
Ar             -0.3142164             -1.2186336              2.7832451
Ar             -6.2242617             -1.5785040             -1.2648391
Ar              1.1545966              2.1636332              3.4995331
Ar              5.6279658             -2.0877178              3.4665604
Ar              4.8854736              1.7831924              3.4927885
Ar              3.0429478              2.4619635             -4.2845018
Ar             -4.8109947              3.9975476              1.0063583
Ar             -2.7692092             -0.1656980             -5.8048689
Ar              1.8609671             -3.8075007             -3.6097916
Ar             -1.0342965              0.4655275              6.0403277
Ar             -3.6758935             -1.6259733              4.2526891
Ar             -3.0010706             -2.2011631              0.5192965
Ar             -5.8422903              0.4243281              1.7816893
Ar             -0.4033228             -3.3045534              5.7890175
Ar             -4.3278775             -3.1677027             -4.0013664
Ar              6.5968905              0.0008061              0.5509077
Ar              5.6654325             -0.1479526             -3.0894960
Ar             -0.7771335              4.7717500              1.6449605
Ar              6.8283065              3.8750265              1.0655386
Ar              0.6894289             -3.1817263             -0.1107927
Ar              1.0506228             -0.5935771             -5.6771129
Ar             -4.9458637             -5.1381006             -0.8489318
Ar             -6.9332563              2.1512965             -1.5724324
Ar             -2.3895341              4.7041319             -1.6763889
Ar              3.0894297              4.8569495              1.8471853
Ar             -1.1409310             -3.6331480             -5.8561668
Ar             -1.5216520             -5.1554113             -2.3594953
Ar             -6.2930738             -3.2968819              2.1297096
Ar             -6.3874803             -0.0863101             -4.6528840
Ar              1.3089331              4.6221311             -1.5681926
Ar             -4.2808450              2.9342899             -4.2872876
Ar              2.3575612             -3.9037831              3.0989606
Ar              2.5261291             -0.8104009              5.2478656
Ar              4.4749047             -3.0411282             -0.6864295
