42
Energy:            -182.5621
Ar              0.3075439             -0.2884071             -0.0183027
Ar             -2.9235669              0.6706801              1.1835759
Ar              3.8078056              0.4325900              0.4209604
Ar             -2.8921530             -2.8114520             -0.1759718
Ar              3.0104061              3.6342408              2.1544518
Ar             -6.5549218             -2.4833342             -0.6986795
Ar             -5.1657071             -1.8089567              2.7191924
Ar             -0.9860941              1.7874600             -2.7603859
Ar              0.5602265             -3.9116397             -0.0489450
Ar              2.1499923              3.1342746             -1.4649685
Ar              2.3256212             -2.1356389              2.6537042
Ar              5.5170816              2.1731575             -2.5120569
Ar              2.4697566             -0.2571232             -3.0487738
Ar             -0.6220354              3.4449369              0.8153124
Ar             -1.3318015             -2.0583336              3.0687643
Ar             -4.1576288             -0.0000185             -2.2496406
Ar              4.0259435             -2.9619665             -0.9091474
Ar             -4.0513278              3.8577834              2.6243570
Ar             -3.8746102              3.5742615             -1.1172599
Ar             -2.3911072              6.7019591              0.6668927
Ar              7.1263639             -0.7670676             -0.9531871
Ar              6.7089719              2.3732944              1.3535245
Ar              2.8483998              6.2334742             -3.3654741
Ar             -1.3978806             -5.5492602             -2.7589657
Ar             -3.3697419             -5.1486512              2.7262342
Ar              2.1004674             -6.9487292             -1.4150513
Ar              5.9820740             -2.2278227              2.2661425
Ar             -6.4797621              1.1862864              0.5528393
Ar             -4.6371659             -5.9889401             -0.7710082
Ar              3.6925676             -5.5065461              1.7347707
Ar              1.5124159              6.5095367              0.2477481
Ar             -7.8031336              0.3165531             -2.9211973
Ar             -4.4084554             -3.4636379             -3.6262944
Ar              0.5917105              1.1042121              3.4176757
Ar             -7.0532403             -5.0325961              2.0035221
Ar             -1.1738847             -7.1988329              0.5425119
Ar              5.0899255              5.3042587             -0.4545949
Ar              0.3675535             -5.3457466              3.4401004
Ar              4.3925845              0.7160461              4.0785164
Ar             -0.9784744             -1.8660397             -3.1613369
Ar             -0.7855979              5.4464436             -2.4948569
Ar              1.9381526             -4.0206557             -3.7624850
