42
Energy:            -183.1221
Ar             -0.3325543              0.4370522             -0.9008846
Ar              1.7146466             -0.2406262              2.0742674
Ar             -1.4494445             -2.0209522              1.4205069
Ar              3.4229644              0.4805481             -1.2190892
Ar             -3.9390220              0.1234629             -0.3326104
Ar             -1.5957667              1.6481780              2.4358421
Ar              1.4713054             -2.6181700             -0.7178322
Ar             -1.9657604              3.6302653             -0.7577773
Ar              1.4396343             -3.8125431              2.7854845
Ar             -1.8706979             -2.4539373             -2.3423671
Ar              1.4821883              3.0322906              0.6212013
Ar             -4.3341682             -3.8912433              0.3251877
Ar              1.0237849              2.9149593             -3.1036626
Ar              1.6014140              2.7252380              4.2956436
Ar              0.7834763             -4.8235332             -3.5307999
Ar              3.4568637              5.6436393              2.1182173
Ar             -1.4727486              5.5131155             -3.8973165
Ar              4.2577261              4.1509300             -1.5331497
Ar             -2.4335729              7.3105904             -0.5220726
Ar              4.7262148             -5.3293671              3.3413594
Ar             -5.3579706              1.4329581              2.8678363
Ar             -0.0555682              8.9226278             -3.2522481
Ar             -0.7742655             -5.4282522             -0.0751719
Ar             -2.0237157             -5.0742592              3.4508837
Ar              1.0734231              6.1991450             -0.9967172
Ar             -3.3136884             -5.7739777             -2.8691685
Ar              4.1491417              1.6699293             -4.6430081
Ar             -0.4926856              5.4840346              2.4101326
Ar              1.0638269             -7.4553406              2.5740597
Ar              1.1747196             -0.8384161             -4.0292824
Ar              2.4088810              6.0598488             -4.4653991
Ar             -2.3998851              1.2012880             -3.7734687
Ar              3.1497784             -5.7430838             -0.1133205
Ar             -0.4644570             -1.1922172              4.8903727
Ar             -5.4875385             -2.2437875             -2.9059023
Ar              3.8316859             -1.6201585              4.7081413
Ar             -4.1757786             -1.9605649              3.7988559
Ar              4.6835365             -2.2931526              1.0367169
Ar              4.7358371              1.8872186              2.0316307
Ar             -4.1259984              4.8294271              1.9768652
Ar              4.3433920             -2.7672673             -2.9239417
Ar              4.1764603             -6.4724553             -3.6584672
