42
Energy:            -185.7374
Ar              1.2217121             -2.4690566              0.4714053
Ar              0.3129675              1.1677459              1.1476449
Ar             -1.0542552             -1.5886133              3.1957020
Ar              0.1140157             -2.0016584             -2.9595470
Ar             -0.6424870              1.5693988             -2.3892004
Ar             -3.3445292              2.0923915              0.3312009
Ar              2.4985731              3.5290105             -3.2024378
Ar              1.3211186              0.6726418              4.7904782
Ar              3.2935159              3.3466928              0.4582143
Ar             -3.6565047             -3.1792088             -3.0385984
Ar              2.8656596             -5.6509965              1.2440280
Ar              0.8322672              4.2372268              3.1941837
Ar              2.6777720              0.2442734             -1.5793262
Ar             -2.0964995              2.0362470              3.8555779
Ar             -2.1601145             -1.2305447             -0.2836602
Ar             -1.1406117             -4.9636389             -0.9667399
Ar             -3.9711446              0.5188330             -3.3255899
Ar              2.4682007             -2.9090098              3.8894844
Ar             -0.6377702             -5.1415418              2.7013480
Ar              4.7336490             -2.7491853             -0.7485835
Ar              1.4823222              0.5307486             -5.2739625
Ar             -3.3865516              4.2022984             -2.6594278
Ar             -0.1463828              4.5979469             -0.4775659
Ar             -3.6552134             -3.7427410              4.8245022
Ar             -5.8677427             -1.1177345             -0.5966343
Ar              2.0621581             -6.4968497              4.9203268
Ar             -2.3329640             -0.5592168              6.4947330
Ar              2.2743153             -3.1282066             -5.7511800
Ar             -1.7751210              2.5024374             -5.7587856
Ar             -0.8621339             -5.0381929             -4.8000463
Ar             -4.0414418             -4.0041527              1.1393553
Ar              1.5825765              3.9103152             -6.8742603
Ar              4.2594784              2.9339342              4.0967060
Ar             -0.3552604              5.6602855             -4.1434385
Ar              3.7918945             -0.0986379              1.9244380
Ar              4.8852656             -0.8288356             -4.2640836
Ar             -2.7072195              5.3234409              2.1147499
Ar              5.5112030             -4.5100542             -4.0979125
Ar             -4.5437738             -0.5881100              2.8409911
Ar             -1.8292367             -1.3193584             -5.9323965
Ar             -0.2150184             -3.6909987              6.2742039
Ar              2.2309276             -4.9685956             -2.4200203
