42
Energy:            -190.0560
Ar              1.4687239             -0.5509921              1.0082012
Ar              0.8274532              2.9809047              1.5182196
Ar             -2.5685127             -2.7312308             -1.8339532
Ar             -1.5329966              0.7405963             -0.6875992
Ar             -1.5223868             -2.6200699              1.6137516
Ar              0.7993515             -1.2114579             -2.6808462
Ar             -2.5054063              4.3772297              2.0709293
Ar             -1.7919376              0.7205272              2.9120321
Ar              1.7376916              2.2253800             -1.8649736
Ar              0.4364534              5.3129962              4.3432463
Ar              3.6167947             -3.6672202              2.4257225
Ar              1.2502235             -3.9929050             -0.4424226
Ar              0.2037449              6.6748467              0.7624347
Ar              3.3568575             -3.5640135             -3.8909178
Ar             -1.8517112             -6.0050419             -0.2133487
Ar             -1.3921332              4.2772940             -1.5745204
Ar             -4.2692035              0.2736714             -3.2119133
Ar              1.0371730              1.6286712              5.0596566
Ar             -2.2621465             -4.1570578              4.9497059
Ar             -0.9633582              1.6867099             -4.3348603
Ar             -2.4477875              3.1338782              5.6313037
Ar             -1.8650297             -1.8080797             -5.3587007
Ar              4.5311784              1.6404675              0.3999170
Ar              2.3727968              2.9810813             -5.4688412
Ar             -1.8209548             -0.5381561              6.4525640
Ar             -4.6689659             -0.7361315              0.5447847
Ar              1.6159813             -0.6977990             -6.2260024
Ar             -0.1848635             -4.8234650             -3.7599031
Ar              0.8481163             -2.0576595              4.3597585
Ar              4.4129945             -1.8968636             -0.7097029
Ar             -4.6886292              2.8454111             -0.5222259
Ar             -4.6174357             -1.4541708              4.1532339
Ar              0.4355648             -5.6057311              2.8172052
Ar              4.2300140              0.1856558             -3.7041693
Ar              3.5540701              5.2176580              0.2544816
Ar              4.5260151             -5.6557160             -0.8129627
Ar              4.0540346             -0.1429919              3.6435325
Ar             -5.2589189              2.0805413              3.1468853
Ar              1.7196978              5.7957979             -2.9419954
Ar              5.0248764              3.7465561             -2.8355743
Ar             -4.7087084             -4.3876870              1.7194621
Ar              3.8527358              3.6381528              3.6230724
