42
Energy:            -185.6810
Ar              0.0026515              1.0591303             -0.5120980
Ar             -0.6499536             -1.9347462             -2.8065689
Ar             -0.7514572              0.1129985              5.8773835
Ar              2.5423371              0.1288739             -3.3094588
Ar              0.7393852             -0.9096242              2.7205067
Ar             -1.2437019             -3.1322559              0.5721544
Ar             -0.8364213              1.4799298             -4.1151335
Ar              4.9533005              2.6584455             -1.7743330
Ar             -2.6790766              0.0644149              1.8957499
Ar              1.6731677              1.6714100             -6.7703436
Ar              3.0222972              0.8683516              5.0496138
Ar              2.1575304             -1.9712852             -0.3552999
Ar             -3.5386403              1.3400005             -1.5819517
Ar             -3.8923063             -0.3854894             -4.9133748
Ar             -4.3535116             -0.8989121              5.1143582
Ar              4.3410361             -1.9099377              2.7663012
Ar              3.9404007             -3.4156891             -3.2358938
Ar             -4.6784656             -3.1284945              2.0197108
Ar             -3.2055873              2.6732068              4.5810030
Ar              0.3141133              2.6583897              3.1869267
Ar             -4.0186440              3.3870894             -4.7731742
Ar              5.6162040             -0.9463187             -0.8339218
Ar              1.4871649              4.4024991              0.0661833
Ar              1.8980081             -2.7031227              5.7378580
Ar              5.5011934             -1.6993499              6.3426564
Ar             -0.5375231             -1.4104841             -6.4763948
Ar              3.0233795              5.1950131             -6.9151894
Ar             -2.9749948             -3.9353961             -5.1851819
Ar             -2.1652413              1.7037692             -7.6485077
Ar              1.9771477              3.8074458             -3.5835905
Ar              3.1281800             -1.8345718             -6.4850026
Ar              1.6484895             -4.5486299              2.4380745
Ar              0.7737537             -4.6006419             -4.9073916
Ar              1.3542813             -5.4021763             -1.2631834
Ar              3.2950164              1.3065434              1.2261555
Ar             -4.1583989             -2.3341770             -1.6666051
Ar             -0.6628323              4.7273004             -6.0602799
Ar             -2.4329758              3.7383754              1.0499187
Ar             -2.2424578             -5.5846705             -2.0033597
Ar              4.7737273             -4.6111425              0.2267065
Ar             -1.4384087              4.6318921             -2.3391659
Ar             -1.5850809             -3.2986867              4.2786349
