42
Energy:            -185.1734
Ar              0.4145761             -0.0000525             -0.4096917
Ar             -0.8803688              3.2338334             -1.1076648
Ar              0.3307868              2.4591547              2.3176901
Ar             -0.0700059             -1.1679628              2.9862729
Ar              0.0413863             -2.4008678             -3.0071491
Ar             -1.7131455             -2.9365624              0.1733475
Ar              2.8786631              2.7740023             -0.3513552
Ar              2.1122681             -3.2893477             -0.0846330
Ar             -1.3697322              5.8193146              1.4567170
Ar              3.7878954              2.8695292              3.5501341
Ar             -3.0298845             -0.4283183             -2.2923304
Ar              2.7200686             -0.2560963              5.3737103
Ar             -3.4127552             -0.4995075              4.6838970
Ar              2.9639379              3.1696465             -4.0253641
Ar             -2.5078939             -3.9926210              3.6472307
Ar             -3.0562074              3.3269084              3.7278168
Ar             -0.1878755             -4.8295969             -5.6944706
Ar             -0.3948129              4.7058949             -4.7884761
Ar             -0.0834664              1.1021083             -3.9404850
Ar              1.8287316             -1.4154035             -6.0521328
Ar              2.5650958             -3.6040568              3.6995490
Ar              3.1252447             -4.2192729             -3.6665156
Ar             -0.0094475             -5.8932325             -1.9360229
Ar             -0.5114108              1.4824174              5.7894535
Ar             -3.5324931              2.9809785             -3.6739416
Ar             -0.3988908             -2.2935967              6.4271250
Ar              1.3906193              6.0240261             -1.7647502
Ar              0.1987944              5.0932343              4.8931982
Ar              0.1774327             -5.8923568              5.5622111
Ar             -2.0752724             -1.4307073             -5.8661948
Ar             -2.8081757              0.6360139              1.2000389
Ar              3.2714650             -0.4379680             -2.6107603
Ar              0.1701926             -5.8135502              1.8078375
Ar              1.2319007              0.0909966              8.8514193
Ar             -3.2200301             -6.2785499              0.1754753
Ar              1.1157406              2.1476503             -7.2567139
Ar              3.4094295             -0.3320022              1.6937338
Ar             -4.3329934              3.8423105              0.0560229
Ar              2.3126125              5.7882912              1.8415448
Ar              2.5988758              3.1590430              7.0854081
Ar             -3.1758123             -4.1630441             -3.1594137
Ar             -2.4859606              6.4067172             -2.1346437
