42
Energy:            -181.5543
Ar              0.5030236             -0.2372675             -0.2466636
Ar             -0.4078894             -3.6987325              0.2575405
Ar              2.7270793              2.6455865             -0.5235340
Ar             -2.1448508              1.7435796             -2.1453352
Ar             -3.0686016             -1.2039102              0.0150535
Ar             -0.5657652              3.0445040              0.9054025
Ar              3.1588163             -2.6517701              0.7908020
Ar             -3.3573517             -4.2669189             -2.1723748
Ar              0.2272267              4.7030840             -2.4127503
Ar              3.5224008             -5.1125100              3.6440897
Ar              1.6726715              5.9799805              0.8808900
Ar              5.3636247              0.5148064              0.8760989
Ar              6.2040849             -2.3831061             -1.3264833
Ar              3.7463770              4.3145052             -3.6948953
Ar             -5.6644296             -3.7412582              0.7828421
Ar             -5.7268420              2.8111391             -2.1885342
Ar             -4.7097394             -0.7908955             -3.2998539
Ar             -5.2599025             -0.7202618              3.1945559
Ar              2.2025893              0.8308866              2.7964189
Ar              4.9873035              0.8378507             -2.8702918
Ar              0.8451005             -2.5023171              3.6441669
Ar             -4.1190269              2.1217553              1.0994704
Ar              1.2730919              1.3224666             -3.6770474
Ar             -6.7504142             -0.2328431             -0.2110268
Ar             -3.0672180              5.2172177             -0.7936474
Ar              4.3594997              3.8760376              2.5827104
Ar             -1.5429054              0.2674116              3.0950364
Ar             -2.9054171             -6.4320240              0.8114877
Ar              6.1789970             -2.4678586              2.9366898
Ar              2.1639244             -6.3137001              0.2630154
Ar             -6.3578215              5.0426194              1.0232895
Ar              5.8232380             -5.5014585              0.7183203
Ar             -6.1648540              6.5621516             -2.4711235
Ar              0.4142154             -5.1625587             -2.9912579
Ar             -0.0901504             -6.1075725              3.2544513
Ar             -1.0388316             -1.6583380             -3.2693374
Ar              0.7961845              4.0551787              4.1415162
Ar              2.6111372             -2.0416527             -2.7618506
Ar             -2.8301878              5.0773656              3.0121873
Ar              6.2169404              3.8399699             -0.7885299
Ar              4.2393562             -5.3497787             -2.6859645
Ar             -2.7318516             -3.4069967              3.1271481
