42
Energy:            -182.2491
Ar             -0.4298522             -0.8325019              0.2196136
Ar             -4.0650005             -1.3583697              0.3314158
Ar              3.0250137             -0.0697676             -0.9534529
Ar              3.0453450              2.0836750              2.1362797
Ar             -3.1730678              1.8216777             -1.7827202
Ar              2.9571247             -1.5303255              2.4963279
Ar             -2.3242027              5.1826415              0.0913795
Ar             -3.2407572             -1.1010705              3.9935655
Ar             -2.6712820             -1.6442864             -3.0835524
Ar              2.1942799             -4.3205931              0.3320057
Ar             -2.6956378              1.8286151              1.7924628
Ar              0.3368700              2.6827222             -0.1750036
Ar              0.0785548              0.7604128             -3.1511966
Ar             -1.4631971             -4.3825965             -0.5716851
Ar             -0.8384077              4.3183619             -3.3526957
Ar              0.9282026             -2.6557800             -2.6993402
Ar              2.8036891              3.1951171             -2.9809828
Ar              0.1251395              0.4567504              3.7583975
Ar              3.3708017              4.7112552              4.6620887
Ar              3.2313971             -0.4270961             -4.7039254
Ar             -2.6384136              1.4962450             -5.5028652
Ar             -0.3595813             -3.2906295              2.8702385
Ar             -0.2754231             -1.4649910             -6.0762348
Ar              1.0539857              2.2294277             -6.3339668
Ar              2.4184522             -4.0972793             -5.7245071
Ar             -2.7954672              2.5325366              5.3697562
Ar             -4.9337889             -4.3910926             -1.7819689
Ar              3.5366854              0.7584694              5.5349326
Ar             -3.8548362             -4.4988213              2.3668096
Ar              0.6940983              2.8630984              6.6302609
Ar             -0.0521070              4.1943383              3.1487885
Ar              5.2708136             -2.6195770              5.2270900
Ar              2.7201407              5.3883321              0.4662908
Ar              1.5406408             -2.4165479              5.9119051
Ar             -1.4600236             -4.8571410             -4.4775341
Ar              4.5106358             -3.3258752             -2.5123322
Ar             -2.0460278             -3.9653161              6.0893005
Ar              5.5285707              2.7960003             -0.4940972
Ar              1.5638722             -6.3049593             -2.7365962
Ar             -1.5789630              4.8437533             -6.9964474
Ar             -1.2790261             -0.3711568              7.1704774
Ar              1.8336010              5.8431872             -5.5025650
