42
Energy:            -181.3167
Ar             -0.0484131             -1.8207890             -0.1162344
Ar              1.9503951              1.4447728             -0.2719385
Ar             -1.8435430             -1.5203613             -4.2138761
Ar             -1.2032128              1.2390939              1.5302692
Ar              1.8194802             -0.2278267              2.9449323
Ar              3.7394494             -1.7468861              0.0954378
Ar             -1.7169618             -5.4372375              0.8378622
Ar              0.3348023              2.7690127              4.5872013
Ar             -0.0792015             -3.2178962              3.4369380
Ar              5.5059949             -0.9569287             -3.1369690
Ar              1.8031738             -1.2380431             -3.2033200
Ar             -2.8567974              3.6552486             -0.7601209
Ar              3.6192954              3.0581966              2.6390450
Ar             -0.4357604              1.6547731             -2.9141473
Ar             -3.7010089             -3.6097913             -1.6372499
Ar             -3.1487838             -2.1254366              1.7571419
Ar             -3.7840928              1.9421992             -4.2979965
Ar              0.4159432              4.5413780              1.2172817
Ar              5.5759055             -0.1623446              2.9721752
Ar              0.2869298              5.1868281             -2.4448511
Ar              3.3313605              2.2079702             -3.5626789
Ar              3.6743810             -3.4074591              3.5750429
Ar              3.7093129             -4.3715559             -2.6143649
Ar             -2.8473434              4.2136395              3.0721305
Ar             -6.4351052             -1.5925594              0.1302071
Ar             -4.8293983              1.2170733              2.0809408
Ar             -3.2239928             -0.0083081             -1.1810969
Ar              1.9187073             -4.9447048              0.6419541
Ar             -0.1486571             -4.5305514             -2.6067607
Ar             -5.4464728              5.0896234             -3.1671989
Ar              3.6398645              4.7733802             -0.7451667
Ar             -3.3001589             -4.8482089              4.2941650
Ar             -6.3101926              1.9492486             -1.2895635
Ar             -2.0773618             -0.2392771              4.7665872
Ar             -5.7748004             -1.1538915             -3.6325691
Ar             -4.1479982             -4.2568850             -5.2842566
Ar              3.5214667              1.0980232              5.9395425
Ar             -5.7047114             -1.7206452              4.3268599
Ar              5.6161662              1.5867376             -0.3731409
Ar             -7.4767980              2.1269788             -4.8365163
Ar              0.4000595             -6.8589241              3.6233140
Ar              3.4710876              5.8870510             -4.3689612
