42
Energy:            -188.2763
Ar              0.3647102              0.0466053             -1.1475324
Ar              3.3641580             -1.8854849              0.0374297
Ar             -2.9839469              1.4680211             -0.1238569
Ar             -2.2800421             -2.1080992              0.2033446
Ar              3.1235540              1.5983088              1.0039441
Ar              0.8703141             -1.0277333             -4.5954061
Ar             -2.6826032             -3.3996379              3.6609787
Ar             -6.6005304              1.0368211              0.8018179
Ar              3.8778328             -3.0572364             -3.4242437
Ar             -5.7562506             -2.5953285              1.5200450
Ar              0.1118352              3.5100994              0.0264844
Ar             -3.8661897              0.1501990              3.2286216
Ar              3.4327509              4.3346327             -1.5317952
Ar              3.6937660              0.7264551             -2.6456610
Ar             -5.1664385             -1.1561611             -1.9139470
Ar              0.7185925              2.8184048             -3.6373310
Ar             -4.4385129             -4.8299174             -1.2431401
Ar              0.7141087             -3.0763667              2.1968824
Ar             -2.5698108              4.3593531             -2.4515448
Ar             -1.9726285              6.5897345              0.5397154
Ar              5.0794737              2.2345302              4.3260147
Ar             -4.8362892             -6.1809622              2.2666707
Ar             -1.4000531             -5.7345948              0.7981078
Ar              0.4917544              6.4623360             -2.3942231
Ar              0.6024011             -3.5832030             -1.6649262
Ar             -2.2773650              3.6335700              2.9025307
Ar             -0.2896372              0.5031680              2.3901961
Ar              4.4114654             -3.9070813              2.9905521
Ar              6.7208919             -1.2216956             -1.6503149
Ar              1.7140328              6.6428358              1.1806049
Ar              4.8926688              4.9008503              1.8359764
Ar             -2.4017308              0.7972744             -3.6868139
Ar              5.8342292             -4.6363200             -0.4607188
Ar              6.1469055             -0.5860025              2.0472459
Ar             -5.0711201              4.4832776              0.4790422
Ar              2.8444013             -0.6513714              3.9618756
Ar             -1.4070997             -6.4760739             -2.8824143
Ar              1.5243630              3.6551439              3.5675195
Ar              6.4546096              2.3026269             -0.4215818
Ar             -2.3552620             -2.8791656             -3.6667225
Ar             -5.7402617              2.4335871             -2.6425324
Ar              2.4352540             -5.9269483              0.4622471
