42
Energy:            -181.6734
Ar              0.1320504             -0.4781623             -0.0228781
Ar              2.0887461             -1.3676567             -3.1112619
Ar              3.8534876             -0.4132407              0.0415271
Ar             -3.6273871             -0.5386108             -0.0660642
Ar              3.7906183              1.7124712              3.1863467
Ar             -3.6295216              1.7580496             -3.0503404
Ar             -1.7749346             -1.6622779              2.9730852
Ar             -3.7114670              1.5850082              3.0398018
Ar              1.9791777             -1.5792616              3.0571148
Ar             -1.6677465             -1.4480980             -3.1487815
Ar              0.0396312              1.6291370              3.1071936
Ar             -1.8024497              2.6934236              0.0495235
Ar              1.9542483              2.7541891              0.1097800
Ar              4.0988191             -4.5488233             -3.1954449
Ar              0.1334104              1.8291025             -3.0103455
Ar              3.8857241              1.9208321             -2.9695226
Ar              2.1084888             -3.6783836             -0.1019032
Ar             -4.8048068             -3.4159262             -2.0986659
Ar             -1.9240771              4.1503595              5.1091177
Ar              0.0562235              5.4147794             -1.7204244
Ar             -3.7532481              5.2401016              1.9852123
Ar              3.8284180              5.4688943             -1.6584094
Ar             -2.8767493             -4.3473364             -5.2167466
Ar              1.8506279              4.2264980              5.1741113
Ar             -1.7826928              4.4451466             -4.9126649
Ar              5.7963100             -1.4413136              3.0701984
Ar             -5.1200814             -1.4290082              4.7240777
Ar              1.9960145              4.5541458             -4.8512416
Ar              5.9171377             -1.2174520             -2.9625727
Ar             -4.7804211             -3.6590252              1.7178316
Ar              0.1402064             -4.8887727              2.9023234
Ar              3.9514625             -4.7775054              2.9940333
Ar              5.8026241              2.7437093              0.1670638
Ar              5.8854195             -3.5821994             -0.0228856
Ar              0.0092273              5.2944879              2.0434480
Ar             -3.7060482              5.3468255             -1.7898360
Ar             -6.6837163             -4.4515560             -5.2164394
Ar              0.3161884             -4.6853231             -3.2659480
Ar             -5.6551385              2.6212702             -0.0048804
Ar             -4.8844153             -1.1018377             -5.0876533
Ar              3.7806115              5.3413458              2.1093693
Ar             -1.6037819             -3.7657129             -0.2080206
