42
Energy:            -179.2830
Ar             -0.4340850              0.5184101              0.2075259
Ar              2.2359712             -1.2427529              1.9260549
Ar              1.4516039              0.4272113             -2.8855019
Ar             -2.1418070              1.2221478             -3.0174018
Ar             -3.6995147             -0.0801999              1.7544053
Ar             -3.0783142              3.1632900             -0.0049726
Ar             -3.2481822              3.0450398              3.7610566
Ar              0.0941822              3.6325459              2.1237503
Ar              0.9205368             -2.8907474             -1.1465683
Ar              0.7947509             -2.9237260              5.0391147
Ar             -2.8305531              4.8227186             -3.5279251
Ar              4.2338225             -1.2922863             -1.2163464
Ar             -2.6416505             -1.9535769             -1.3147350
Ar              2.9652561              2.0321605              0.1647968
Ar              2.8226873              1.7789525              3.9588199
Ar              3.4902827              3.5411483             -3.3186628
Ar             -1.1671731             -2.8660708              1.8868192
Ar              2.4273038             -2.7826030             -4.5289514
Ar             -3.2253832             -2.2621468              4.8568467
Ar              4.3545637             -1.6394698              4.9200053
Ar              6.2949684              1.5934145              5.4184147
Ar              4.6834978              0.2373833             -4.6904019
Ar             -4.8498651             -3.5550545              1.2776646
Ar             -5.4730549              0.4067359             -1.5192704
Ar             -0.5608957             -0.7019955             -5.7924621
Ar             -5.8344815              0.4625987              4.7626491
Ar              5.7283592              0.2823612              1.9175208
Ar             -5.1474225              2.1403108             -4.9596922
Ar             -4.1415200             -1.5021785             -4.6781464
Ar              5.3119417             -3.4397070              1.6578228
Ar             -1.2382461             -3.9695268             -4.0656570
Ar             -0.6406558              0.3151834              3.8811183
Ar             -0.0600696              3.4037226              5.8932731
Ar             -6.4130199              2.4848308              1.5769465
Ar             -4.8558393             -4.5971545             -2.5262463
Ar              0.2118483              3.8082078             -1.6040717
Ar              6.8892128              3.2955357             -4.9830802
Ar              1.9047275             -4.9638894              1.9412329
Ar              6.1668623             -3.1409429             -3.7786733
Ar              0.2060385              3.0334386             -5.2944229
Ar              6.3246920              1.7411854             -1.5623652
Ar             -6.1763421              4.0934725             -1.8816373
