42
Energy:            -189.8384
Ar             -0.9590219             -0.0160790              0.3820825
Ar             -2.5856269              2.5620160             -2.3122313
Ar             -1.4912917             -3.6691065              0.3181700
Ar              1.1659290             -2.2544394             -1.6490528
Ar              0.4835470              0.7749717             -3.6273249
Ar             -2.0587253              3.1672533              1.4813687
Ar              1.3575734              1.9349385              2.4970535
Ar              1.5914375             -1.9806933              2.0055210
Ar             -2.4819846             -1.2466275             -2.6262685
Ar             -3.7035803             -1.7272390              2.5868405
Ar              4.0233808              3.9356234              0.7370881
Ar             -4.1921753              1.7201008              4.0171311
Ar             -0.8966752             -0.1714184              4.3361894
Ar              3.8234347             -0.8462700             -3.8553460
Ar             -4.6691047              0.7166533              0.0756332
Ar             -3.3578203             -4.5235723             -3.9885822
Ar             -0.1621032             -5.7254902             -2.4596079
Ar              0.7111392              3.1246887             -0.8378792
Ar              3.5728472              3.0240168             -3.1254640
Ar              0.7681268              5.6298438              1.9381596
Ar              4.8146904             -3.5673256              2.9605956
Ar             -0.9866925             -3.8891512              3.9962966
Ar              4.4303232              0.1761681              3.2920419
Ar             -5.0198864             -3.1714663             -0.6530916
Ar             -5.0486956              4.5647021             -0.0793330
Ar             -2.8772125              6.4816798              2.7107653
Ar              4.8416940             -2.7279414             -0.6711545
Ar             -1.6201318              6.0160167             -0.9832159
Ar              3.2560156             -4.6318520             -3.5392126
Ar              2.2673264             -5.2131193              0.3227183
Ar              3.1698654              0.4923444             -0.3559735
Ar              0.1119081              4.5490685             -4.1728213
Ar              0.0427905             -2.8505381             -5.0479537
Ar             -0.7965255              3.7157401              4.9181525
Ar              2.2104548              6.3969621             -1.5533105
Ar              2.1040838             -5.8782092              4.0050832
Ar             -4.1146549             -5.4098059              2.4812505
Ar             -3.4597188             -6.6854907             -0.9434924
Ar              3.2927108              4.4077583              4.4440086
Ar              2.0269087              1.3318207              6.1282967
Ar              2.1988899             -2.3584603              5.5654282
Ar             -0.7213636             -7.0027485              1.6828442
