42
Energy:            -178.2124
Ar             -0.5861716             -0.0803467              0.1497764
Ar              0.7113669             -1.5959789              3.2769723
Ar             -1.8396455              1.4190071             -2.9942038
Ar             -2.9502149             -0.6430465              2.9635963
Ar              1.7052952              0.4470897             -2.7253392
Ar              0.7673543             -3.0165703             -1.7436018
Ar             -0.2875410              1.9813670              3.2166934
Ar             -2.8514446             -2.0420468             -2.0538881
Ar              3.3509868              1.0899259              3.5030125
Ar              2.0933886              2.5615102              0.3319213
Ar             -1.5449041              3.5505961              0.0644233
Ar             -1.6996535             -2.3326827              6.0385329
Ar             -2.6576463              1.3817182              6.0931061
Ar              3.8290331              2.8442184             -4.6803387
Ar              4.4212537             -2.5167046              3.5771789
Ar             -4.4705197              4.0038824             -2.2461352
Ar              2.0377430             -4.2450699             -5.0501386
Ar              1.9744802             -3.2495513              6.3551812
Ar              0.4342511              1.9268796             -5.9804051
Ar             -1.5794969             -3.6222296              1.1247807
Ar             -0.5350017             -1.5131684             -4.9768647
Ar              4.3446553             -2.2506466             -2.7875773
Ar              3.0236564             -1.0474740              0.4615116
Ar              3.0921266             -0.7105004             -5.9845671
Ar             -3.1936741              0.9586955             -6.3813070
Ar             -3.9255675              2.9930610              2.8623059
Ar              2.0761018             -4.5655797              1.4364710
Ar             -1.6154178              4.9125858              5.1427162
Ar              5.1538083              1.2942476             -1.5083661
Ar             -4.0840801             -2.6316231             -5.5284792
Ar              1.9986566              3.9012048              5.5506500
Ar             -5.2343545             -2.6668090              0.7762577
Ar              0.7878474              4.0899994             -2.7906923
Ar              0.9192689              0.4058865              6.4130831
Ar              0.8089758              5.4697100              2.2837980
Ar             -4.2503875              0.8655921             -0.1914223
Ar              1.4681248              5.5197367             -6.1893101
Ar              5.6527049             -4.0575568              6.8053372
Ar             -1.5412192             -5.0268663             -3.9088902
Ar             -5.1938026              4.1893952              6.2176175
Ar             -2.1326428              4.5047445             -5.1625998
Ar              4.5440497             -0.4121570              6.7319670
