42
Energy:            -181.0007
Ar             -0.7430636              1.0027137             -0.5287692
Ar              1.8155477             -0.2371198              1.7898207
Ar             -1.6291265              0.4303652              3.0804285
Ar             -2.1490318             -1.0833960             -3.1905858
Ar              1.3287418              0.1717184             -3.5373991
Ar             -4.1390059              1.5867504              0.5978847
Ar              4.1441685              2.5540235              2.6582014
Ar              3.8982129             -1.1315116             -1.1520121
Ar              2.6670587              2.3192784             -0.7522080
Ar             -2.9906171             -1.8913551              0.3360529
Ar             -0.4043417             -3.1039747              2.7157459
Ar              4.8515686              1.4746464             -3.7367299
Ar              1.4010482              1.3901324              5.1185173
Ar             -1.5876461              2.5564516             -3.8139318
Ar              5.3969334             -1.0646598              2.3290861
Ar              1.9191199              3.9386411             -3.9654996
Ar             -5.6492896             -0.5020652             -2.0698683
Ar              0.4781401             -3.3913379             -4.5251092
Ar             -5.0585652              3.1868408             -2.6099113
Ar              0.4825586             -2.4583751             -0.8900728
Ar             -5.7450849             -4.0811984             -0.9125454
Ar             -2.9359503              4.0060368              3.1859363
Ar              0.5275192              3.3890907              2.0538977
Ar              3.1820531             -4.7158277             -2.1929702
Ar             -5.2549931              1.1642199              4.0986485
Ar              3.0648035             -3.8245117              1.4359911
Ar             -3.9251881             -2.4215527              3.9307356
Ar             -2.2127349             -4.6952772             -2.1171830
Ar              5.0622614              0.5680036              5.7130335
Ar              1.6630974             -5.8249249              4.3092665
Ar              7.7766606              1.7103834              3.2644315
Ar             -4.8231913             -3.2289953             -4.5439054
Ar             -6.5361793             -1.2334849              1.4909762
Ar              6.4298870             -3.6631322             -0.3170294
Ar              5.1514378              4.7941462             -1.8913037
Ar              4.0740396             -2.1070816             -4.7561963
Ar             -2.0126011              4.4802087             -0.5617549
Ar              2.6447342             -2.1870455              4.8218797
Ar             -4.5152635              0.6588028             -5.4523684
Ar             -5.5951560              5.0176508              0.6969511
Ar              6.3416127              1.5315977             -0.2522209
Ar             -7.7573200              1.9887292             -0.1102821
