42
Energy:            -181.1686
Ar              0.8046696              0.0610918             -0.8361077
Ar              0.2139534              3.2284669              1.6121501
Ar             -0.0322581             -3.7434627             -1.0164411
Ar              3.3356026              2.8306895             -0.3940407
Ar             -1.9544489             -1.5553489              1.0615465
Ar              4.0103160             -0.5686748              0.9802346
Ar             -2.5986988              1.7701830             -0.3408014
Ar              2.8978690              5.7769877              1.9965392
Ar             -2.6025267              1.1970779              3.4699192
Ar              1.9844178             -6.5918846              0.4348128
Ar             -3.7225111             -4.1502130             -0.9602299
Ar             -3.1970540              4.6526000              2.0783220
Ar             -2.1173436             -1.1485791             -2.7781016
Ar              0.0899674              3.7242202             -2.0194453
Ar              3.2815158              3.5217274             -4.0988681
Ar              1.2975379             -2.4049387             -4.0523034
Ar              1.6341325             -3.4009104              2.2089272
Ar             -3.3204714              5.2599182             -1.6672087
Ar             -1.6654156             -4.6692703             -4.2375002
Ar              3.5900889             -3.4878562             -1.2131316
Ar              0.8386852             -0.0193096              2.9137888
Ar              3.8182532             -1.3966673              4.6313224
Ar             -4.6627080             -3.3626130              2.7710581
Ar             -0.2646806              6.1326957              4.0320796
Ar              3.6042558              2.3538985              3.3663994
Ar             -2.8635251              2.3956822             -4.0445248
Ar              1.7845381             -6.0983233             -3.2936233
Ar              5.2740310             -4.0086985              2.1115792
Ar              0.5557614              1.0508043             -4.4951429
Ar              0.3633894              2.6943405              5.3685171
Ar             -1.5367699             -5.3458562              1.9596028
Ar             -0.4689313              6.6205927              0.3463846
Ar             -1.3423293             -7.1859852             -1.3678525
Ar             -0.5482608              7.3177540             -3.2888980
Ar             -4.5541000             -6.9485323             -3.3621472
Ar              3.9324366             -0.0572124             -2.8515954
Ar              2.7334483              6.3505641             -1.7057440
Ar              2.1415911              9.2550842              0.6680981
Ar              1.2700880             -4.8930311             -6.8053180
Ar             -1.3265823             -2.5271386              4.5795173
Ar             -0.0915547              4.5131794             -5.6910395
Ar              4.5692597             -3.8749139             -4.8324101
