42
Energy:            -188.0012
Ar             -0.0910879             -1.3014180             -1.5536378
Ar             -1.6161491             -0.7371532              1.7552263
Ar              1.5174418              2.1789175             -1.8344502
Ar              1.2555283              1.5728661              1.8472392
Ar             -1.8981033              1.8587718             -0.9681811
Ar             -3.6429379             -3.3679905              3.3638120
Ar             -0.9275486              1.4501036             -4.5567969
Ar             -1.0369499             -4.8593866             -2.5108884
Ar             -0.8959094              0.7808513              5.0004395
Ar             -2.5810806              2.8778952              2.4166203
Ar             -3.7819609             -0.4525909             -3.1178836
Ar              1.9861948             -1.9711830              1.8592603
Ar             -0.0625148             -2.9573275              4.6601365
Ar              2.2995177             -0.4679721             -4.3752624
Ar              4.3899635              3.0069672              0.3647713
Ar             -0.6933300             -4.3692562              1.1721119
Ar              0.0239024              4.7615693              0.4851543
Ar             -3.6416608             -2.9447005             -0.4608907
Ar              2.3329444             -4.0763094             -1.1678380
Ar             -4.5210611              0.2319781              4.1351581
Ar              3.8887299              3.1441679              4.1042633
Ar             -1.1218498             -2.1874275             -5.1092741
Ar              4.4599892             -3.2553045              4.4221522
Ar             -4.1744631              3.2266483             -3.6267008
Ar              4.9755799              2.1063006             -3.2627643
Ar             -4.3324777             -4.0226958             -4.0730260
Ar              2.5665476             -0.1737777              5.1375559
Ar              2.1143690              3.5330043             -5.2260272
Ar              3.7020347             -0.5019438             -0.9143506
Ar              5.1403157             -0.0122593              2.4644387
Ar             -4.9824319              0.5052663              0.4205398
Ar              2.6246253             -5.6540319              2.2552118
Ar              5.1928084             -2.8362575             -3.3071759
Ar             -3.2370069              3.4543322              6.0338477
Ar              0.3218388              4.3108813              4.2611131
Ar              5.4192924             -3.3848154              0.7443877
Ar              3.0726720              6.1230298              1.9823871
Ar              2.8723534              5.5738727             -1.9590960
Ar             -3.6193040              5.1209738             -0.4234891
Ar             -0.7919511              4.8957192             -3.1113644
Ar             -2.9168885             -1.8242747              6.8174769
Ar              1.9810750             -4.2128102             -4.8434526
