42
Energy:            -192.0495
Ar             -0.0028409             -0.6905625              0.5060598
Ar             -1.8360345             -3.0710813             -1.4655277
Ar             -1.4728807              0.5257458             -2.5926419
Ar              1.8117768              1.8219744             -1.4255436
Ar              1.5156795             -1.7206005             -2.6139148
Ar              1.5489673             -1.8270629              3.5910160
Ar              1.8270735              1.8179826              2.3080497
Ar             -1.2903925              2.6926643              0.4557709
Ar             -1.5386216              0.4449311              3.5945756
Ar             -1.9294926             -3.1879784              2.3386694
Ar              1.3624635             -4.0543029              0.4705319
Ar             -2.8622053              3.9740028              3.5334166
Ar             -0.4417445             -6.5030423             -1.7600874
Ar              3.5062619              0.8116042              5.4392241
Ar             -2.8339141              3.9928831             -2.6863024
Ar             -5.2535512              0.9764694              3.4551848
Ar             -3.3651141             -1.8654956             -4.6877006
Ar              5.3164663             -1.9805232              3.4906926
Ar             -0.2972815             -4.1519450             -4.7337813
Ar              3.7245609              4.4255967              0.4130147
Ar              2.9587432             -5.1044837             -2.7860391
Ar              5.1090144             -4.2703858              0.3153571
Ar              5.2272122             -1.9859591             -2.7595510
Ar              3.7328354              4.4185482              4.2132854
Ar             -2.6331482              6.1895173              0.4278709
Ar              5.5537097              1.6579794              2.2989880
Ar              0.0403369             -0.5152672             -5.8288985
Ar             -3.6942925             -5.4953807             -3.5780788
Ar             -5.1685362              0.9568943             -2.7528434
Ar             -4.9802332              3.1993813              0.3664118
Ar             -5.6816151             -2.6785448              2.1929544
Ar              0.5331037              5.3150424             -1.4860594
Ar             -3.5788742             -0.2552627              0.3867669
Ar              0.5450410              5.3290623              2.3349897
Ar              3.7004883              4.3985986             -3.3900416
Ar             -3.0125588              1.7669682             -5.7777964
Ar             -5.5356562             -2.6903330             -1.6652170
Ar              3.4074475              0.8018080             -4.6229521
Ar              0.3426392              3.0982208             -4.5996935
Ar              0.3570181              3.1118429              5.4448293
Ar              3.5933908             -0.9004826              0.4145724
Ar              5.5265218              1.6315161             -1.5210906
