42
Energy:            -182.7418
Ar             -0.2280468             -0.4924655             -0.5276687
Ar             -1.5873825              1.3453958              2.5108425
Ar             -1.5531019             -2.3867931              2.4314869
Ar             -3.2650692              5.8483756              0.6912300
Ar             -2.1838070              2.6513087             -0.9059760
Ar             -2.5013088             -2.3108995             -2.8772152
Ar              1.1911092             -2.2572820             -3.5307999
Ar              2.0453614              1.3261048              1.7575611
Ar              3.4336509             -0.4132853             -1.1776136
Ar              1.4409408              2.6725797             -1.6153391
Ar              3.4263202             -4.2104792             -1.2918687
Ar              2.1175922             -2.3676958              1.7149184
Ar             -3.8691314             -0.5053990              0.0978984
Ar             -3.8652829             -4.2159831              0.1720694
Ar              4.4419143             -0.4988997              4.0311644
Ar             -0.2312572             -4.2073909             -0.5557705
Ar             -0.4429837              5.8814450             -1.8854674
Ar              3.7201203              4.6239004              0.5731323
Ar             -0.8341913              0.8923257             -3.9718528
Ar              2.8400310              0.8805176             -4.6961363
Ar              5.8107603             -2.2985513              0.9584920
Ar             -4.5214362             -0.5630392              3.8263263
Ar             -6.8736324             -2.3096007              1.4460938
Ar              0.7664510             -4.2676907              4.6897414
Ar              0.9445696              4.1365125             -4.9821346
Ar             -0.7008388             -5.4716144             -4.0212469
Ar              0.1266982              4.4845485              1.5549528
Ar              0.7622033             -0.4946882              4.7581805
Ar              3.9925087              3.3044472              4.1407934
Ar              4.4714591             -4.2517066              3.9498941
Ar              5.7321456              1.4914048              1.1330708
Ar             -4.5041245              0.8712530             -3.3224572
Ar             -2.7792899              4.1282867             -4.2831695
Ar             -5.5802614              4.0809616             -1.7200474
Ar             -7.2799752             -5.5323260             -0.6526174
Ar              2.0662992             -6.1354771              1.6774309
Ar             -4.4386120             -5.5248252             -3.2803463
Ar              5.0469225             -2.1418834             -4.0049903
Ar             -5.0172775              2.6231757              1.7120344
Ar             -6.2033347             -2.3035990             -2.2666487
Ar              5.7952891             -6.0879044              0.9293329
Ar              5.1249488              2.7231503             -2.3899464
