42
Energy:            -192.8364
Ar              0.7231992              0.9388731             -0.0887998
Ar              1.4295973             -1.9350658              2.1227532
Ar             -1.8377969              2.6754903             -2.1074994
Ar              0.7818947              1.3881810              3.5704075
Ar             -2.0770963             -0.9859793             -1.6287065
Ar              3.8915658              0.4025980             -1.9963627
Ar              1.3386653             -2.4046963             -1.5346386
Ar             -1.9864677             -0.5175565              2.0226111
Ar             -1.7470352              3.1444909              1.5501530
Ar              1.8400406              3.6831165             -2.3655605
Ar              2.0940390             -5.3839045              0.6892130
Ar             -4.8504817             -2.4815547              0.4888525
Ar              1.9325567              4.1621458              1.3646103
Ar             -0.0974003              4.8150920              4.5311737
Ar             -4.3811229              4.9711228             -0.4783172
Ar             -0.7060820              5.9499359             -0.6948699
Ar              4.6152253             -2.5594790              0.2646240
Ar             -4.6094450              1.2467000              0.0043462
Ar             -3.5070884             -4.2790237             -2.5557413
Ar             -5.3178526              2.7725071             -3.4089288
Ar              3.7990757             -4.9510822             -2.6432143
Ar              0.1714174             -4.9390718              3.9148997
Ar             -1.3740679             -3.9282356              0.5883263
Ar              3.9841306              0.8831928              1.7331820
Ar              3.6735129              3.3229456              4.6809378
Ar              0.0141431             -5.7555418             -2.4471805
Ar             -2.7483425              6.5855887              2.5096800
Ar             -5.3933923             -0.1922234              3.4497211
Ar              3.4212243              2.0224269             -5.4448472
Ar             -2.8199689              0.4834404             -5.0593940
Ar             -0.5008207             -1.5314727              5.3768023
Ar              3.3520601             -0.6947591              5.1501715
Ar              0.5995132              0.4496443             -3.7408706
Ar             -5.5508345             -1.0095021             -2.9245295
Ar             -0.3473559              3.5294755             -5.4904188
Ar             -3.3483274             -3.4598327              3.8201446
Ar              3.9553054             -4.1349877              3.7184468
Ar             -0.7531648             -2.8228834             -4.6864800
Ar              3.0995362             -1.9833528             -4.8689801
Ar             -5.1600777              3.5871624              2.9534657
Ar             -2.5699757              1.7731082              5.0036138
Ar             -2.9049448              5.7713960             -3.8519355
