42
Energy:            -183.2598
Ar              0.2269593             -0.0766153              0.1736875
Ar              2.9538070             -2.4046927             -0.2582468
Ar             -1.9559662              2.9315165              0.8598518
Ar             -2.5999096             -2.5457935             -0.1049825
Ar              1.4010292              2.7552964              2.0883236
Ar              2.7855889             -0.4878370              2.9828715
Ar             -4.3844534              0.2913809              1.4632519
Ar              0.1796440             -3.0824737              2.2645360
Ar              0.7393324              3.0003570             -1.6417457
Ar             -2.6668789              0.7097142             -1.9683076
Ar              2.8615314              0.0054014             -3.2705585
Ar             -1.9690617              5.5707962             -1.8449200
Ar             -3.5093254              6.1402693              1.7182260
Ar             -2.4608624             -5.7994894              1.7691151
Ar             -0.8053062             -5.1858730             -4.5633213
Ar              1.1095451             -6.7958663              2.3228646
Ar             -5.0637568              3.4875656             -0.9906264
Ar              3.6000802             -4.1084526              3.1615339
Ar              3.7907046              5.0210776              0.4874326
Ar              4.7981514              2.7243179              3.4553811
Ar             -3.3911674             -5.7400118             -1.8889232
Ar             -0.1378218             -2.0077984             -2.8376551
Ar              0.1964347              6.0305619              1.1162658
Ar             -0.3470994              1.0673125             -4.8509958
Ar              3.9658852              3.6936707             -3.1709207
Ar             -1.0984951              0.3792940              3.5403887
Ar              2.8028357             -4.1553339             -3.5383487
Ar              3.7812865             -6.0131559             -0.2459270
Ar              3.9684385              1.3119661             -0.0669274
Ar              0.1970097             -5.0705380             -0.8696546
Ar             -0.9213508              7.8366186              4.1633270
Ar              0.2445450              4.7174797             -4.9320512
Ar             -3.6499970             -2.4668860             -3.8005182
Ar             -1.2595517              4.1159453              4.2950642
Ar              1.7463662              6.6738650             -2.1829553
Ar              1.6502190              1.9473782              5.6689417
Ar              4.7112556             -7.7249274              3.0245855
Ar             -0.8199114             -5.2310411              5.1556706
Ar              0.8407846             -1.9194641              5.7797390
Ar              2.3016226              5.5871018              4.2312062
Ar             -3.2427386             -2.6415215              3.6792722
Ar             -3.3333963              3.3510637             -4.4875481
