42
Energy:            -187.0397
Ar              0.2956677             -1.2755391              0.2468240
Ar              3.7217554             -2.9924097              0.8474562
Ar              3.2795197              0.8959482             -0.3971285
Ar             -2.3540922              0.8987268              2.0671617
Ar             -4.3663509             -2.4534750             -3.7233487
Ar             -2.6063614              0.0942989             -1.5753618
Ar              2.8256805             -2.0997508             -2.5355457
Ar              0.8316587              0.8461350             -3.4071506
Ar              1.2393382              1.3705937              2.7950498
Ar             -0.6754181             -2.4524028             -3.2254596
Ar              0.8099891             -4.8580830             -0.8222586
Ar              0.3571288              3.4219008              5.8511308
Ar             -2.0799181             -2.6812289              2.9036651
Ar              1.7667638              4.3765216             -2.9383265
Ar             -1.9068506              3.3775350             -3.5529931
Ar             -1.0580170             -0.0288095              5.4231475
Ar              1.5085410             -2.2374571              3.7054093
Ar             -0.1270404              2.4421116             -0.3859999
Ar             -1.0261010              4.4326285              2.5321932
Ar             -3.3471748              2.9246820              5.0739242
Ar             -4.7006447             -0.6375905              4.6081885
Ar             -2.7797282             -3.6468175             -0.5207136
Ar             -5.2882296              1.5265795             -3.5334141
Ar              6.0438659              2.8619162              1.4041495
Ar              4.6050666             -0.1251424              3.0681628
Ar              4.3658955             -5.4208541             -2.1435870
Ar              2.5876201              0.3672436              6.2196296
Ar              1.5228661             -5.0280323             -4.6550466
Ar             -0.8251904             -3.6385963              6.3412514
Ar             -2.0222940             -5.8622857             -3.4535167
Ar              1.4902130             -1.5251111             -6.1389299
Ar              3.8356311              3.4718811              4.3648403
Ar             -3.7124412              3.4752498             -0.2920827
Ar             -1.7433058             -3.5855140             -6.5220085
Ar             -2.1920735              0.1031252             -5.4532559
Ar              5.2637406              3.5693253             -2.1426362
Ar             -0.8877660              6.0250677             -0.8696002
Ar             -5.1864542             -1.1463093              0.7976771
Ar              2.6223133              4.4560340              0.8648092
Ar              4.3845532              0.6555912             -4.4086134
Ar             -5.9179846              2.1869530              2.4082213
Ar              4.8341560             -3.2013389             -5.3986669
