42
Energy:            -189.5226
Ar              0.0371424             -0.1552807             -0.1751774
Ar              2.9146035             -1.4260732              1.7230899
Ar             -1.8410007              2.3871948              1.3244487
Ar              1.6676883             -2.8683593             -1.6015428
Ar             -3.1886568             -0.9533633              0.9836279
Ar              3.2780028              0.4810109             -1.4620095
Ar             -2.7952881              1.2190343             -2.1580334
Ar             -1.9674463             -2.4393836             -2.1882229
Ar              0.5240301              3.1722971             -1.4744703
Ar             -0.5007301             -3.4749415              1.3524382
Ar              1.9125888              2.2993110              1.7364817
Ar              0.4142083              0.0419147             -3.8656086
Ar             -5.6115607             -1.4725899             -1.6694662
Ar              3.6925565             -1.9968387             -4.4744809
Ar             -0.3774104             -0.3436048              3.4722182
Ar             -1.1990615              3.8464552             -4.5488781
Ar              2.9361242              0.8042269              4.8788345
Ar             -3.1295701             -2.9333088              4.0378474
Ar             -3.9293330              0.9844420              4.0507855
Ar              3.6634494              1.7676902             -4.8692368
Ar             -3.9728303             -4.4767670              0.2911499
Ar              5.4323966              3.3932863             -1.6091323
Ar             -5.4446253              1.9351002              0.5401060
Ar              5.2502025             -2.8909117             -1.0272474
Ar             -6.4861554             -1.5598979              2.2626201
Ar             -3.6181962             -5.4511079             -3.4492818
Ar              5.3588478              3.5606430              2.2471574
Ar              6.1747264              0.2767473              0.7843624
Ar              6.5970535              0.0482203             -3.0503675
Ar              0.2612848             -3.9273381             -4.8032788
Ar              2.9320586              5.5691533              0.1085714
Ar              2.7208407              5.1420829             -3.7019922
Ar              3.3220269             -5.7427538             -2.9959074
Ar              2.4886983              5.2138769              3.9782518
Ar             -0.1240893              6.8161087             -1.9768451
Ar             -4.0191887              4.7690956              2.9195420
Ar             -0.5946081              3.1880046              4.6499976
Ar             -0.4441287              5.6824020              1.6262219
Ar              1.4843685             -3.4318931              4.5047242
Ar             -0.3965531             -5.8969067             -1.4863656
Ar              2.8181093             -5.1870265              0.9907082
Ar             -3.1286308              4.7846451             -1.0852253
