42
Energy:            -182.0784
Ar              0.7095610              0.8264578             -0.2735344
Ar             -1.4154130              3.8642956             -0.3978463
Ar              0.9828952             -2.8575269             -0.2859015
Ar              4.0228305              2.4443228              2.4514798
Ar             -1.3408394             -4.4599011              2.0465477
Ar              2.1201422              4.2475422             -0.1665532
Ar             -2.2479048             -1.4597043              0.0144617
Ar              3.6445720             -0.9485193              1.1894572
Ar              4.5246573              1.7864215             -1.2940061
Ar             -3.1429669              5.2023333              2.5985498
Ar             -2.9792983              1.2218653             -2.3288723
Ar              3.2076915              6.0587026              2.9103848
Ar             -1.8490168             -4.7544309             -1.7504192
Ar              3.1381728             -1.2390793             -2.7446222
Ar              1.5280529             -4.6262355             -3.4842213
Ar              2.3299110             -3.9761285              2.9216938
Ar             -2.8456100              1.5101362              2.0011865
Ar              0.0654662             -0.8948107              2.9164023
Ar             -2.9283034              4.6705124             -3.6881059
Ar              0.5660137              2.6921870             -3.3976597
Ar             -0.5478966             -1.3593927             -3.3251911
Ar              0.3352737              3.2092972              2.8728221
Ar             -4.3789581             -2.2072918             -2.9265190
Ar              0.6861984             -7.2907033              3.5502042
Ar             -6.2840622              6.2061692             -2.6758383
Ar              4.2365271             -4.3819251             -0.7891588
Ar             -4.8719678             -4.0110774              0.4481595
Ar             -3.1524224              7.0904285             -0.7841389
Ar              3.1810243              7.7721280             -0.5801753
Ar             -5.0660839              3.5623517             -0.3200025
Ar              6.5805759             -1.4361366             -1.0045324
Ar             -4.3763331             -5.5737439              3.8947719
Ar              1.1280669             -6.5018327             -0.1000801
Ar             -3.7480080             -1.8391043              3.3742664
Ar              6.0857408             -3.5537314              2.3289434
Ar             -5.6747131             -0.2009440              0.1485821
Ar              4.2719841             -6.9936269              1.9637300
Ar              3.7543395              4.9973073             -3.3235901
Ar             -6.3466663              6.7559861              1.1694902
Ar              5.7248749              5.0517658              0.1493721
Ar             -0.0440128              6.8993258              1.3010406
Ar              0.2280511              6.4367138             -2.5431680
