42
Energy:            -184.6477
Ar             -0.6746087             -0.8566958              0.5189711
Ar             -2.1646926              2.6200540              0.9597759
Ar             -1.4685684              1.0566744             -2.3490509
Ar              2.8608992             -1.0687185              1.2601560
Ar              1.3792074              2.1220915             -0.1585138
Ar              1.5304708             -1.0108498             -2.2821560
Ar             -3.0858046             -0.3741086              2.9927542
Ar             -3.0344583             -3.6456108              1.0540362
Ar             -0.2486524             -2.7712238              3.5553585
Ar             -4.1500326             -0.4948492             -4.2953413
Ar              0.3633621              1.1376047              3.3753423
Ar              4.6604613             -2.7839286             -2.7981914
Ar             -3.8072944             -3.4003316              4.8810431
Ar              4.7668328              2.1935736              1.4223176
Ar              4.7131432             -4.3793884              0.4949679
Ar              4.4433281              1.0367570             -2.0542074
Ar             -2.8766649              2.8372913              4.7081976
Ar             -1.7365893             -2.7197669             -2.3975143
Ar             -2.1813866              2.9235145             -5.3457222
Ar              1.4655485              2.3538475             -4.0718985
Ar              5.4375960             -0.7242972              3.8576851
Ar             -2.6464243             -3.7037250             -5.8069967
Ar              6.4770924             -1.0724720              0.1663453
Ar             -0.4809586             -0.6191335             -5.4675645
Ar              3.3498617             -0.5519092             -5.4938770
Ar             -5.9633585              2.6033412             -5.4062630
Ar              5.0050338              2.9426099             -5.1709605
Ar             -0.7532846              4.6450027             -2.0288987
Ar              2.1620110             -0.9764907              5.8374348
Ar             -4.2714926             -0.3596050             -0.5058728
Ar              0.9757599             -4.0753597             -0.0630990
Ar             -4.4622091              3.1166274             -1.9851278
Ar             -5.7382649              1.9888738              2.0645646
Ar             -6.3028494             -1.9587580              2.2334623
Ar             -5.5528190              0.0771094              5.5884350
Ar              3.4696170              4.6497907             -1.8848458
Ar             -5.3365610             -3.5242703             -2.1180076
Ar              3.5071385              2.4111787              4.9233101
Ar              3.2628154             -3.8892560              3.8094772
Ar             -1.6030076             -0.4620256              6.3208678
Ar              1.2225272             -3.8983878             -4.4748415
Ar              7.0214727             -0.2779784             -4.3405632
