42
Energy:            -185.9168
Ar              0.2723443              0.3865143             -1.2239764
Ar              0.1261030              0.3770193              5.2411604
Ar              2.0392141             -1.3610019             -5.1664105
Ar             -1.2122983             -1.0961557              2.0763861
Ar              0.6715487             -3.0477514             -1.9128189
Ar             -1.7671124              2.5818104             -3.6167978
Ar              0.3732315              2.0841389              1.9828727
Ar              0.3166183              4.1027660             -1.0582195
Ar              1.2413542             -6.7334786             -1.7741340
Ar              0.0578520             -3.3086786              4.7981467
Ar              2.3991269              2.1073271             -3.6407437
Ar              2.1990681              5.2783092              1.8879723
Ar              3.4067341             -4.5644972             -3.9579006
Ar              0.2450431             -4.5565660              1.3251273
Ar             -4.1074204             -3.5157168             -4.1187340
Ar             -2.7976422             -1.8913512             -0.9988441
Ar             -3.3809698             -4.0773201              2.0914090
Ar             -2.8872260              2.0011626              3.7516207
Ar              0.3954254              4.1091053              5.0342593
Ar              3.5839726              1.8509093              3.6150484
Ar             -2.8057757              1.9147101             -0.0184203
Ar             -3.2781246             -1.5429019              5.0991079
Ar              2.3823600             -1.2603717              1.6252522
Ar              3.3602534             -1.3858733              5.4086269
Ar              3.4188654              2.0722314             -0.0509310
Ar             -1.4543147             -0.9779745             -4.2683821
Ar             -4.9376550             -0.5808587              1.7855723
Ar             -3.1784337              5.3607440             -1.5523972
Ar             -1.6979344              5.1320646              1.9520787
Ar              3.8071284             -1.0633269             -1.9383517
Ar             -0.4675092             -4.6640351             -4.9242936
Ar             -2.2358946             -5.4780308             -1.4423226
Ar              3.7402325             -4.3551187             -0.1998747
Ar              3.7245181              5.3385277             -1.7661851
Ar             -0.6643083             -2.0606164             -7.7243754
Ar              5.7824164              4.3671417              1.7243025
Ar             -4.7804627              0.4424472             -2.9939553
Ar              0.6891162              5.2632859             -4.5904214
Ar              4.0584597              5.1788952              5.1758211
Ar              2.8155841              2.0991646              7.2294523
Ar              0.1678091              1.5840837             -6.6195427
Ar              3.3415863             -4.5696425              3.4747519
