42
Energy:            -189.2618
Ar             -0.1052032             -1.3952257             -1.0461478
Ar              2.9109369             -0.1756013             -2.5653328
Ar             -1.9334953              2.2040235              2.3186636
Ar              0.2527596              2.1587813             -3.3672160
Ar             -2.6785101             -1.4217400              1.3865051
Ar             -2.4420715              1.3723515             -1.0842893
Ar              1.2374760              1.7152933              0.2484000
Ar             -3.3718377             -1.9381996             -2.5523505
Ar              2.9855267             -1.4061259              0.8317179
Ar              0.0899786             -1.5585760             -4.6584500
Ar              0.4934591             -4.0274964              1.4672593
Ar             -5.4822116              0.8296662              1.7701322
Ar              5.8303261             -2.1944774             -1.4383103
Ar              5.1302061              1.5150826             -0.1874817
Ar             -0.7594937              4.7391048             -0.1331834
Ar              4.0296345             -2.5345766             -5.1153706
Ar             -5.9007947              0.9485711             -2.0375090
Ar              6.3008234             -1.4047618              2.3079418
Ar             -1.2071640              3.0003673              5.8317268
Ar             -3.2294774             -0.0507563              4.8933757
Ar             -2.9670932              0.9556937             -4.8008800
Ar             -3.2623433             -5.0015726              1.2189441
Ar             -4.7921966              3.4161314              4.3715325
Ar             -4.8908636             -5.3553598             -2.1720865
Ar             -5.3835240             -2.7905368              3.5792784
Ar              6.1784536              0.5217720             -4.0744514
Ar             -6.0327828             -2.4136030             -0.0647774
Ar              1.1917559              4.0561077              3.1398317
Ar             -4.4637057              4.1663200              0.3855973
Ar              2.4728354             -3.8845153             -1.9596898
Ar              3.0656413              4.8954523             -0.0166530
Ar              0.3310651             -0.4569588              3.2705244
Ar             -2.8495501              4.4003961             -3.1936594
Ar             -1.6888169             -3.4548434              4.4132185
Ar              3.0830474             -2.7808638              4.2230192
Ar              0.9434077              5.8069743             -3.2306872
Ar              3.8159038              3.3442300             -3.2945612
Ar              3.6643474              1.2422886              3.2932871
Ar              4.4258170             -4.7355036              1.1993233
Ar             -2.1727650              5.8149369              3.1791958
Ar              2.6981838              0.9532278             -6.0549676
Ar             -1.1306228             -4.8468135             -1.9147921
