42
Energy:            -182.2723
Ar             -0.7668944              0.0369422              0.4096524
Ar             -2.8797351             -2.8876046              0.6923244
Ar              1.1488984              3.1574519             -0.4400402
Ar             -2.6868987              2.9337658             -0.9040170
Ar              1.4171354             -2.6889079              1.3420854
Ar             -4.1373685              0.6147814              1.6960830
Ar              2.1742477              0.9190341              2.3881392
Ar              2.7182059             -0.2123560             -1.1476606
Ar             -0.2868746             -2.4157593             -2.0483428
Ar             -3.6092061             -0.5324130             -2.0522953
Ar              2.9798942             -3.9733140             -1.8697398
Ar             -3.2709457             -4.3196650             -2.8335750
Ar             -4.0281551             -2.2033808              4.2110980
Ar             -0.3229113              1.0296877             -3.0139047
Ar             -1.0834259              2.8033226              2.4939002
Ar             -0.2705056              4.6691542             -3.4616090
Ar             -0.5828672             -0.9098813              3.9939156
Ar              4.7012305              2.8476140              0.5245478
Ar              2.2881836             -4.1173829              4.6401315
Ar              2.9460579              2.5042830             -3.7601403
Ar             -3.1534979              1.5996031              5.2367395
Ar             -3.7738609              5.8018888             -2.9829071
Ar              0.7268617              2.5076154              5.6143120
Ar             -0.3617811             -5.5362837             -0.2997260
Ar             -1.3581853              5.7709993              4.5261527
Ar             -4.3098668              4.4518761              2.2217806
Ar             -3.3677024              2.2675021             -4.5898491
Ar              4.5098673              2.7177097              4.5940990
Ar              0.2486529             -5.0443789             -4.4418639
Ar             -3.8677462             -6.4806197              0.3184439
Ar              2.0032286             -1.3038404             -4.7401495
Ar             -1.1396913             -4.7325941              3.3130127
Ar              2.8436739             -0.5858038              5.7078841
Ar              2.0119515             -7.6189042             -2.2082908
Ar             -2.2324355              5.2171900             -6.5822304
Ar             -1.1242870              5.9886307              0.5128546
Ar              2.8628950             -6.1300026              1.3852903
Ar             -1.8189986             -1.4762318             -5.2997305
Ar             -1.8295583             -7.8188609             -2.8061558
Ar              1.9904815              4.8225348              2.7603044
Ar              5.5613015             -6.6393772             -1.2307882
Ar              0.0460237              2.0431601             -6.4521245
