42
Energy:            -183.2759
Ar             -0.4362058             -0.4111737             -0.4791493
Ar             -0.2668551              2.2416945              2.0843244
Ar             -0.4319447              2.9937665             -1.9562452
Ar             -3.4197805             -2.5843322             -0.9093521
Ar             -0.1810075             -1.2537838              3.1613776
Ar             -3.3871029              0.2596842              1.7802812
Ar              2.7522222             -1.8645973             -1.6617502
Ar             -3.2237232             -3.3403705              2.6694039
Ar              3.0153135              1.8619577             -1.9951204
Ar             -0.0321709             -3.8858823              0.7010507
Ar              0.4069150             -0.2560695             -4.0242809
Ar              1.6469791              2.8846198             -5.3882345
Ar              1.0728104             -4.5013192              4.3349441
Ar             -2.9613075              3.0943974              4.4058362
Ar              3.0748128             -0.9812028              4.8331190
Ar             -0.5169213             -3.6651528             -2.9038716
Ar             -0.8474559              5.8793832              2.5722925
Ar             -0.8440306              6.5088719             -1.0858675
Ar             -2.1313607              2.1770833             -5.2294355
Ar              2.9051218              2.9401405              4.0000737
Ar             -3.0773107             -1.4908873             -4.5708322
Ar              2.4206045              5.5424603             -2.8856101
Ar              0.1827059             -2.1008299              7.0321999
Ar              0.0778590              1.3285346              5.7523076
Ar              2.4676886             -3.4807133             -5.0562846
Ar             -0.9298570             -6.9972799             -1.0161865
Ar              2.5189873              6.3631320             -6.5849782
Ar             -3.2175789              3.8360558              0.5990072
Ar             -3.7914900              4.6908440             -2.9342968
Ar             -0.7695322              5.6913003             -4.8062491
Ar             -1.5989148             -6.6764577              2.7588389
Ar              2.1293735              4.4542164              0.5888441
Ar              3.4580746             -3.3358784              1.7162372
Ar              1.9848464             -6.9485750              1.6501169
Ar              2.5305641             -5.5181161             -1.7200600
Ar             -2.3308777             -4.6292086              5.9858753
Ar             -3.0583841             -0.7431640              5.4413999
Ar             -3.5861535              1.0473253             -1.8991356
Ar              0.2601483              4.9779395              5.9534889
Ar              2.6926336              6.6948133              3.5613476
Ar              2.7703173              0.3346506              1.3473392
Ar              4.0609466             -0.0946866             -4.9514394
