42
Energy:            -186.5877
Ar             -0.8840748             -0.7116588             -0.1288180
Ar              1.0932643              2.8939916             -0.7194221
Ar              1.0551046             -3.3077820             -1.9721721
Ar              1.3929295             -2.8516133              1.7629733
Ar             -1.1391508             -0.8199020              3.6476235
Ar              1.5875819              0.9168834              2.3225206
Ar             -1.8491527              2.3312856              1.6586102
Ar             -2.0984172              1.9205735             -2.3355648
Ar              2.9546344             -0.4656856             -0.5807917
Ar             -1.9220493             -1.7946615             -3.5785352
Ar             -4.4391525             -1.7245190             -0.9810619
Ar             -4.5162920             -0.3376953              2.4039292
Ar              3.9757475             -4.4245435              3.8108291
Ar             -5.2504831              1.9091718             -0.5196449
Ar              4.5588422              2.5802719              0.8618840
Ar             -4.8094366              0.3410655             -4.3265202
Ar              4.5170664             -3.7346651             -0.3466664
Ar             -5.2158722              3.3363598              3.0010076
Ar              0.9592344              0.2487562             -3.3424067
Ar             -5.1184612             -3.5447005             -4.2194257
Ar              4.0836350              2.1418351              4.6709517
Ar             -0.1792169             -4.1755389              4.8938720
Ar              4.2041334             -1.5225692             -3.8575765
Ar              4.8685685             -0.9766141              2.4769988
Ar             -2.4400486             -3.6131571              1.7328831
Ar              4.0827415              2.2053456             -2.9746431
Ar             -1.2838381              0.8297252             -6.1612218
Ar             -3.3761322              1.2958227              5.6184896
Ar              1.0161975             -2.5333954             -5.7703264
Ar              0.3590107              2.0149856              5.6086126
Ar              1.3911854              4.4918323              2.7704057
Ar              0.5831613              3.7115920             -4.4426369
Ar             -2.7696830             -2.4959434             -7.0777135
Ar             -2.3914781             -4.9212914             -1.7496551
Ar             -3.3035052              3.8473036             -5.2403596
Ar              2.2772422             -1.2907279              5.2108664
Ar              6.5364027             -0.2678637             -1.0016110
Ar              2.6482325              0.9857587             -6.4531871
Ar              3.5154314             -5.1755701             -3.9831487
Ar             -0.9101082             -1.1890906              7.3049225
Ar             -3.7984443             -2.7151679              5.2910915
Ar             -2.0092516              4.7082194              4.5294163
