42
Energy:            -180.1838
Ar              1.0407870              3.2952671             -2.9586674
Ar              1.1431835             -0.1264340             -1.6074743
Ar             -1.7739292             -2.3025132             -1.7510306
Ar             -2.2480149             -4.0086322              1.4883029
Ar              0.6842863              2.7819173              0.9404276
Ar             -0.8072756              0.2791180             -4.6964680
Ar              1.6139359             -0.8442672              4.7523481
Ar             -4.2699749             -0.2609818             -3.2942909
Ar             -5.4449273             -2.9214885              3.1367899
Ar              4.2145007             -2.0886744             -1.7278370
Ar              3.3032300              5.1228077             -0.2672423
Ar             -1.9264946              1.6621408             -1.3582658
Ar             -4.2434267             -0.5888773              0.4826664
Ar              2.9937567             -0.0605964              1.4471372
Ar              1.2595475             -3.4716649             -0.0442962
Ar              4.2425197              1.7715847             -1.5089848
Ar              2.6838140              2.6551646              4.1227041
Ar              6.6820899             -0.0658263             -3.6240723
Ar             -3.3396818              2.9591120              1.7102844
Ar             -7.5196598             -0.4805425             -1.6290150
Ar              6.6167648             -0.5029780              0.5533443
Ar             -3.2356102              3.1759943             -4.4912220
Ar              3.0079425              0.3592434             -4.7370380
Ar             -3.9471252              0.3219034             -6.9295007
Ar             -1.9382087             -2.1085107              4.7325403
Ar              0.9779431             -4.2424665              3.5238202
Ar             -0.9685808              1.7911650              4.3424036
Ar             -5.4848044              2.7317640             -1.4176128
Ar             -2.6489831             -2.9365120             -5.3561446
Ar              1.1597989             -2.9505721             -3.9874748
Ar             -6.8862027              1.7884309             -4.8404248
Ar              5.5364500              2.8289094              1.8171600
Ar              4.0650543             -3.5097523              5.6857929
Ar              4.4576713             -3.3585057              1.9547343
Ar             -7.1018137              1.4399628              1.7006048
Ar             -4.4963619              0.5113111              4.2171182
Ar              4.7480306             -2.9242351             -5.3346057
Ar              5.3814006             -0.2295110              4.2030782
Ar              7.8552787              2.6455646             -1.1865541
Ar              9.7474336             -0.6703915             -1.5102036
Ar             -0.6970808             -0.6287534              1.5619201
Ar             -6.6280701             -2.0419979             -5.4188718
