42
Energy:            -187.3040
Ar              0.0835027              0.7032782             -0.6179235
Ar             -3.1370558              2.2923124             -1.9710971
Ar              1.5088950             -1.5317316              1.8797144
Ar              3.1654391              2.3565550              0.7034995
Ar              0.7451273             -2.8131876             -1.4003501
Ar             -1.9860276             -2.0185252              0.8195539
Ar             -2.2731609             -1.2275375             -2.8087921
Ar             -2.9032833              1.3747312              1.5942445
Ar              3.8457661              2.6761600             -2.9629090
Ar              1.1800129             -0.3065761             -4.0136353
Ar              0.4149979              1.6772954              2.9551191
Ar             -2.0680884              4.2681743              3.9172950
Ar             -0.2839976             -3.8569907             -4.7336979
Ar             -1.0882449             -2.8592369              4.2849051
Ar              0.6755708              3.0841841              6.3209802
Ar              0.2781632              3.3252460             -3.0477321
Ar              3.4546959             -3.5709234             -3.7135211
Ar              1.9143692              2.4876319             -6.3115739
Ar              2.8041194             -4.0465232              4.1377344
Ar             -2.1679090              0.6347388              5.3022280
Ar              1.6379423             -0.6422207              5.5603547
Ar             -0.7003962              4.1514617              0.4295617
Ar              4.7054163             -0.2507658             -5.0945710
Ar             -2.2721039             -4.9276620             -1.4891108
Ar              3.8478752              2.1595657              4.3783546
Ar              3.7431108             -4.1246299              0.3214370
Ar             -1.8068017              1.3980743             -5.4602668
Ar              2.4696097              5.8624072             -4.6666873
Ar              1.3260566             -6.3385857             -2.0112259
Ar             -4.3844991              4.6639778              0.7968448
Ar             -5.3957352              2.3731175              4.0586914
Ar             -4.1233008             -3.8844134             -4.6189593
Ar             -4.6427928             -1.4491051              3.3373728
Ar              5.0114833             -0.8394801              2.3388705
Ar              1.7686383              5.1025481              3.0551462
Ar              0.2044781             -5.0785746              1.4818742
Ar              2.4015105              5.6338482             -0.8930464
Ar             -5.1936638             -0.6902839             -0.4934880
Ar              3.7301733             -0.6857444             -1.2697064
Ar             -3.5532136             -5.0181188              2.2094495
Ar             -1.0316835              5.0776677             -6.0111463
Ar             -2.2865416              5.9517179             -2.4288544
