42
Energy:            -180.7347
Ar             -0.5228664             -0.8853162              0.6815413
Ar              0.8644437              2.2650662             -0.9822683
Ar             -0.7108809             -3.8801604             -1.2606765
Ar             -1.2773000              1.1829457             -3.8808226
Ar             -1.5927594             -1.6681170              4.4207264
Ar             -0.3965624              1.8222419              2.9218394
Ar              2.6633666             -3.1217174              0.2353109
Ar             -3.5526028             -3.2609317              1.2006890
Ar             -0.6932118              4.9176689              0.9299884
Ar             -1.4065719              4.7649941             -2.6919112
Ar              1.4155130             -1.0229619             -2.5490770
Ar              2.7060576              4.0090937              1.8526365
Ar              1.6918887              3.5954909             -4.3932071
Ar             -3.9468544              0.2380217              2.3683424
Ar              0.4958274             -4.6977273              5.8295192
Ar              3.0749833              0.4120976              1.2058746
Ar              2.2643935             -4.6527646             -3.2363823
Ar             -2.7768655              2.2076997             -0.4205741
Ar             -3.5241289              3.9563613              3.0401954
Ar             -4.0235623             -4.8755071             -2.4044889
Ar             -0.1646546             -4.2354332              2.2569163
Ar              2.0788138              5.8580282             -1.3495689
Ar             -0.0520172              5.0847690              4.5790626
Ar             -0.8836616              8.1543193             -0.7977196
Ar             -4.0359866              5.9202101             -0.2500235
Ar             -0.8347549             -6.9865316             -3.1604366
Ar              1.3105561             -6.7471385             -0.0139253
Ar             -2.3004791              7.6485640              2.7635938
Ar             -3.2619035             -1.1948432             -1.8547650
Ar              2.0805695             -1.8195106              3.8918095
Ar             -2.3835627             -6.7629851              0.5394594
Ar              0.4671590              7.4666296             -4.3592812
Ar              3.6012064              5.7429456              5.0079741
Ar              4.8661748             -6.0024901             -0.6708658
Ar             -3.3697855              7.8002083             -3.5853532
Ar              3.2051098             -5.5178406              3.0703464
Ar             -1.2104272             -2.7912795             -4.6807636
Ar             -2.9829091             -5.4016741              4.2700037
Ar              2.7096794              1.8813890              4.9016341
Ar              2.8031411             -8.3597728             -3.0241112
Ar              1.5539702              7.5873747              2.1536048
Ar              0.0125480             -7.7112824              3.4404597
