42
Energy:            -189.3461
Ar             -0.5533738              0.3070850              0.0480178
Ar              4.6159789              2.6442022             -1.6639196
Ar             -2.8954810              3.0612011             -0.2855231
Ar             -1.9754837             -2.6622122              1.4007122
Ar              2.5746795             -0.4168877             -1.7517286
Ar             -0.5107371             -2.6217364             -1.9670808
Ar             -0.1065223              1.2138170             -3.5306329
Ar              2.8690788              1.0652275              1.6558459
Ar             -0.3811792              2.8010123              2.5179424
Ar              1.5840131             -2.3937728              1.1139474
Ar             -3.7811945             -0.7250352             -1.3047605
Ar              0.1912380             -4.3879900              3.9049616
Ar             -3.4479052              0.5709912              2.4851843
Ar              5.2841893             -2.0654930             -3.6203074
Ar             -3.6369417              2.1406585             -3.8397008
Ar              1.1269456              3.3129427             -0.7832260
Ar              2.0766392              2.2427022              5.1735776
Ar              3.4337270              0.9683406             -5.0683330
Ar             -3.1927007             -2.4782057              4.8280894
Ar             -5.5732277             -2.6444122              1.6027202
Ar              5.1647129             -1.9160775              0.4590954
Ar              2.9312877             -4.2413148             -1.6963566
Ar             -0.8562403              6.0742047              0.9520478
Ar             -0.0490489             -5.6552528              0.2388974
Ar              1.6034677             -2.2937650             -4.8637956
Ar              2.1639817              6.7695697             -1.2610774
Ar              3.5429236             -5.2792599              2.0109535
Ar              2.6593032              4.8823997              2.2153850
Ar             -0.0460151             -0.5942648              3.8406645
Ar             -2.3625675             -1.3919915             -4.8864596
Ar             -3.5338067             -4.6613498             -1.2504916
Ar              0.2608834              0.3060098             -7.1485657
Ar              0.1308559             -5.7557345             -3.7189419
Ar             -0.1713658              5.5354026              4.8656899
Ar              3.7586990             -5.3239264             -5.1638079
Ar             -1.0628327              3.6692003             -6.2145455
Ar             -3.5803397              4.4182003              3.2208661
Ar             -1.2707614              5.2135155             -2.8154748
Ar              2.1159428              4.3056809             -4.2013069
Ar             -1.9109054              2.0290366              5.7596665
Ar             -3.2471034             -5.8251074              2.5633449
Ar              3.5293709             -1.7896898              4.1283155
