42
Energy:            -186.5532
Ar             -0.6415646              1.6176360              1.3755513
Ar              3.0326729              1.6893512              0.7652021
Ar             -4.3324610              2.1529246              0.6990124
Ar             -2.2811566              0.1498221             -1.6356518
Ar              0.2870264             -1.9323971             -3.3930209
Ar             -1.5386814             -4.4879325              2.1206601
Ar             -0.2909557             -1.3144220              3.9942891
Ar              0.6955882             -1.5944730              0.3135074
Ar              0.9007147              1.5324182             -2.0827779
Ar              3.2591401             -1.0573737              3.1039346
Ar             -4.9660287              1.6719810             -3.5311151
Ar             -0.2280454              5.1264008              2.2360318
Ar              4.1749184              2.9426636             -3.0111117
Ar              3.7252670             -0.6644566             -2.0205673
Ar             -1.7575288              3.9281495             -1.3746666
Ar             -3.0131629             -1.1827186              1.5701989
Ar             -3.5147289             -1.7970734             -4.5205876
Ar              5.4660263              1.9190225              3.6530719
Ar              6.1031939             -3.4317884              3.2904377
Ar              0.8288920             -5.1044675             -0.8473681
Ar             -5.6031191             -1.3365823             -1.2797827
Ar             -7.6748935              1.7705192             -0.8322280
Ar              7.1898596              0.8159539             -2.5607983
Ar              6.2272330              3.3544702              0.1471244
Ar              0.7893414              4.3119454             -4.4480452
Ar              1.8710177              4.8977672             -0.8381111
Ar              6.1659001             -0.4582991              0.8152490
Ar              3.9734374             -3.4985009              0.2485507
Ar             -6.5813055             -0.5518899              2.2662173
Ar              1.9685507             -4.4898501              3.1517753
Ar             -5.2627355             -4.1045104              1.2904879
Ar              3.5875133              4.9667249              2.4885166
Ar              2.2920698              0.6550941             -5.3669126
Ar             -2.4953106             -3.5191473             -1.3342454
Ar              1.6401693              2.1714738              4.2227734
Ar              6.8176719             -2.9056711             -2.0537345
Ar             -3.0448936              4.6911768             -4.7679506
Ar              3.4097600             -4.0482646             -3.4728725
Ar             -3.9074146             -2.8548522              4.6865755
Ar             -1.4141368              1.2949608             -5.0166871
Ar             -5.4071823              4.8713876             -1.6737981
Ar              5.4847917             -1.3119572             -5.2289969
