42
Energy:            -182.2774
Ar              0.1093759              0.1238922              0.9802694
Ar             -3.3084824              0.4452949              2.5771296
Ar              1.0763040             -3.3988092              0.5728297
Ar              3.0314435             -0.2272408             -1.6452594
Ar             -2.9483571              0.7114662             -1.0735482
Ar              2.1366587              3.5014976              0.3137106
Ar             -0.4258615             -1.5714498             -2.2703030
Ar              0.9310829              2.4581703              3.7124598
Ar              4.4695504             -2.0692244             -4.7765409
Ar             -2.6591917             -2.5591286              0.4184353
Ar             -5.3734976             -2.6472788              3.0326994
Ar             -1.6398243             -2.9867359              3.8197940
Ar              0.1374878              2.0676348             -2.3031213
Ar              6.4904010             -0.9281035             -0.0135437
Ar             -7.1016552              0.8459655              2.9037012
Ar             -4.1285283             -2.1495396             -3.1091223
Ar              3.7097596              0.5444646              1.9090902
Ar             -3.0291987              4.0062838             -2.7039920
Ar              3.4771107              3.1570215             -3.2820343
Ar             -5.3765474              2.9888393              0.3387320
Ar              4.4263423             -3.1087838              2.3210974
Ar             -1.5876149              3.4797089              0.9381740
Ar             -6.0960729             -0.8837160             -0.1814220
Ar             -1.8105162             -5.0192933             -2.2293044
Ar              5.7379568              2.7686179             -0.2711975
Ar              4.3612098             -3.7041228             -1.3588896
Ar             -7.6086378             -1.3888990              5.8620377
Ar              4.3061618              1.4282059             -6.4856350
Ar              0.5130328              3.3382756             -5.7538478
Ar              1.6122383             -1.3976694              4.1249564
Ar              7.6878980             -2.8239552             -3.0155714
Ar             -2.3170097              0.7606469             -4.7650702
Ar             -4.0206999             -2.2242325              6.5675922
Ar             -5.5120336             -4.6319356             -0.5358840
Ar              1.3168494             -0.2333197             -5.1099938
Ar             -5.8120896              1.3751859             -3.2501496
Ar             -1.4170608             -2.8783348             -5.6004141
Ar              6.3662986              0.7581386             -3.3578264
Ar             -4.9099009              1.3703553              5.8618134
Ar              4.4714243              3.9519718              3.2167941
Ar              1.5876191             -4.2062072             -3.7527477
Ar             -1.3163370              0.2727004              5.7310685
