42
Energy:            -186.4744
Ar             -0.3506590             -0.8299557             -0.2647783
Ar             -2.5858646             -0.0252307             -3.0035126
Ar             -0.7383911              1.4733361              2.4824500
Ar              2.2620398             -1.8022558             -2.4701574
Ar             -1.0295609             -2.1774615              3.0368643
Ar              0.6148228              1.6572174             -2.8627943
Ar              2.2909544             -1.0100329              2.6333615
Ar              2.9186673              1.0027575             -0.1832623
Ar             -2.2304291              2.6419346             -0.5871062
Ar             -3.4649955             -0.0984984              4.7994933
Ar              4.8327158             -2.2809940              0.0505507
Ar             -0.9793853             -3.4473673             -2.9855164
Ar             -3.7449297             -0.7282388              1.0098819
Ar             -4.1950881              3.9279801             -3.4407191
Ar              2.6210100              2.5830319              3.4553357
Ar              5.6793843             -2.3862213             -3.7082126
Ar              1.7042169             -3.5334794              5.2354532
Ar              0.1809409             -0.8976035             -5.5077698
Ar             -0.9514043             -5.7648334              3.5083229
Ar             -1.8496228              3.2326243              5.5102194
Ar              6.1529938              0.9128040             -1.7586173
Ar              1.3704900             -4.0015395              0.6572381
Ar              3.6869657              0.6794129             -4.7657550
Ar              2.3931691             -3.9537898             -5.4132298
Ar             -1.8837332             -3.1886384              6.4497560
Ar             -5.3931442              0.7882751             -5.2031458
Ar             -4.3685185             -3.6216686              3.5115184
Ar             -0.5933525              5.1010022             -3.0136932
Ar              0.2853161              0.0239556              5.7371739
Ar              4.0384562             -0.1942285              5.7724464
Ar             -4.8955246             -2.6530802             -2.1040615
Ar              3.5884276              3.8262408             -2.6760808
Ar             -2.4189693             -4.1978047              0.3103543
Ar             -4.4563876              2.6234194              2.4179159
Ar             -1.7340110              5.1664207              2.2525003
Ar              1.1411651              4.0992964              0.2209699
Ar             -1.7195174              2.3560406             -5.7222114
Ar             -3.3489946             -2.3898971             -5.7319310
Ar              5.0134829              3.8915266              0.7880158
Ar              5.1483856             -3.1478952              3.6660364
Ar             -5.7317633              1.2157803             -1.3687280
Ar              5.6915221              0.5269397              2.3520677
