42
Energy:            -181.8409
Ar              0.3039141              0.9258608             -0.0500298
Ar              3.1868727              0.1790535             -1.9843579
Ar             -2.3723997             -1.8079669              0.8262172
Ar             -3.0523510              0.2538218             -2.0577903
Ar              2.9279383             -1.1354080              1.4623992
Ar             -0.2713261             -0.3327558              3.3760082
Ar              0.1152503              1.0658775             -3.8364835
Ar             -5.5373442             -0.6680435              2.4170342
Ar             -4.9850182             -2.3368914             -4.6637213
Ar              5.5702867              0.5736628              3.5379274
Ar              6.2772635             -0.4575454             -0.0817475
Ar             -6.0303210              1.9042113             -0.1880506
Ar             -3.4293376              0.0934276              5.2981369
Ar              6.0674915             -0.9738433             -3.8852694
Ar              2.2067774              2.1580041              4.2110572
Ar             -3.3534842              1.1133099             -5.5851411
Ar              3.5640652              1.7560624             -5.2650098
Ar              0.4269600              4.2224525              1.5282803
Ar              0.5432528             -3.8837041              1.8062549
Ar              2.7576189             -1.5621604              5.1417050
Ar              5.8719078              2.6580312             -2.2978457
Ar             -4.7776781              3.8167460             -3.1616500
Ar              3.7342601              2.4426408              0.8483112
Ar              0.4137045             -2.3199084             -1.6406800
Ar              2.1680249              3.7632664             -2.2008862
Ar             -1.4611917              3.1973183              4.6124738
Ar             -5.4368364              2.9656864              3.6590212
Ar             -2.2723368             -3.3541596              4.2353709
Ar             -2.7748830              1.7566193              1.4988526
Ar             -1.4996519              3.6722150             -1.6314666
Ar             -4.8855417             -4.3703547              1.6567210
Ar             -2.9360147             -4.0401917             -1.9969416
Ar              4.0483750             -3.3410372             -1.4614021
Ar              7.4677298              2.8933931              1.1401622
Ar              7.3111601              2.0825727             -5.7414330
Ar              5.1274453              4.4376568              3.6894727
Ar              2.4429152             -1.9436251             -4.8547935
Ar             -5.8831493             -1.8848938             -1.0326365
Ar             -6.7199193              0.7262406             -3.6615133
Ar             -1.3426601             -2.1251950             -4.9007541
Ar             -4.1124639              5.0784389              0.6439726
Ar             -5.8411585             -3.0287330              5.2535221
