42
Energy:            -181.1927
Ar              0.0959250             -1.9205179              0.1988198
Ar             -1.5521369              1.0180034             -1.3213817
Ar              2.0292935              1.3603680              0.0036824
Ar              3.5038231             -1.5704228              1.6761003
Ar              2.0932126              1.2006142              3.9327158
Ar             -1.1324194              0.8972960              2.3202330
Ar             -4.0763523              3.7911091             -0.9378447
Ar             -1.2700394              4.2465356             -3.3079326
Ar              2.9348741             -1.4857086             -2.2637812
Ar              1.0712370              1.4103560             -3.8171931
Ar             -4.5607893              0.5673185              0.8905698
Ar             -0.9777586             -5.0978091             -1.7268387
Ar             -0.5723888              4.1193238              0.4504702
Ar              5.3988998              1.7380467              2.6906526
Ar             -2.8985223             -2.4051311              2.5433674
Ar             -3.3511621             -2.2722187             -1.1405196
Ar              7.2557627             -1.4789981              2.3249636
Ar             -3.9269784             -5.5268536              0.6030656
Ar              0.5636797             -2.1660044              3.9393870
Ar             -4.8568941              0.6447452             -2.9446817
Ar              5.7038909              3.9155343             -0.5870711
Ar             -0.1464735              4.1523676              4.1659783
Ar             -7.1081943              3.3119177              1.2432971
Ar             -0.4090467             -5.2092581              1.9943165
Ar              3.1813839             -4.8778463              3.3032426
Ar              5.6812360              0.2808122             -0.6038376
Ar              4.6303925              2.0030622             -3.6596889
Ar             -3.6133992              3.6861821              2.7690903
Ar              9.0582400             -1.2786573             -1.0102566
Ar              8.2518579              1.9691383             -2.7728226
Ar             -6.3900596             -2.7110425              1.0961256
Ar              6.4430547             -1.3375356             -3.8361719
Ar              8.6555313              1.9963552              0.9854210
Ar             -7.9190868              0.1916048             -0.7453201
Ar             -7.4163691              3.4327530             -2.5850555
Ar             -6.6514300             -2.7663837             -2.7164382
Ar              2.4792634             -4.7060704             -0.3826183
Ar              5.9253362             -3.4115443             -0.6527496
Ar              2.9210668              4.4338230              1.9081265
Ar             -0.5896462             -1.8764874             -3.5727924
Ar              2.2771742              4.5010601             -1.9593136
Ar              6.7714752              5.1765367              2.7412196
