42
Energy:            -182.3850
Ar              0.5150377             -0.2594435             -0.7127628
Ar              2.3820250              2.3868924             -2.7130502
Ar              0.0789262             -3.8990813              0.1293806
Ar              0.0831230              3.2316557              0.3025109
Ar             -2.9815400              1.3364865             -0.5996872
Ar              3.0025209             -1.9730274              1.3303550
Ar             -2.5155624              2.6754541              2.8799551
Ar             -2.1626918             -1.9434451             -2.3384767
Ar             -2.3419006             -1.5809910              1.5368953
Ar              4.1889509             -0.7640736             -1.9135361
Ar              3.2584515              1.5694396              0.7883953
Ar              5.8415757              3.4760356              2.4729588
Ar             -4.9959263             -3.8438739             -3.7396752
Ar             -5.9561609              4.0823328              1.9652828
Ar              3.3146534              5.1084990             -0.1517125
Ar             -3.4257606             -4.8523916             -0.4053695
Ar              1.2199381             -1.7362738             -4.0234410
Ar             -6.5775240              1.8963605             -1.0119302
Ar             -5.4481693             -3.4793068              2.5062836
Ar              2.9645659             -4.3439560             -1.9861293
Ar             -3.8648989              3.7254053             -3.3775960
Ar              6.4088865             -0.1927329              1.3841419
Ar             -1.0344551              1.3283621             -3.7667571
Ar             -4.7663136              0.1639905             -3.9251002
Ar              5.5110879             -3.1674221              3.6924491
Ar             -3.0357002              5.1353356             -0.0624579
Ar             -0.3513709              5.0000306             -2.8762919
Ar             -5.4225170              0.3910970              2.3457841
Ar              7.9315495             -0.7617356             -1.9845955
Ar              2.0857470              3.8109172              3.4502567
Ar              0.5414277             -3.2508593              3.7639994
Ar              3.1646677             -5.5932944              1.6659936
Ar              6.0464507              2.5397936             -1.3564212
Ar              0.4490046              0.4215224              2.9338749
Ar             -5.4423336             -1.6227161             -0.7308793
Ar             -0.6364608             -5.1332750             -3.3167472
Ar              6.0797103             -3.6001049             -0.1062104
Ar             -7.3630653              3.0297086             -4.4743239
Ar             -7.1724683             -4.9209154             -0.6883329
Ar              5.9548986             -3.3191317             -3.9828255
Ar             -6.5409203              5.5885677             -1.5381135
Ar              3.9774334              0.3746017              4.2141172
