42
Energy:            -183.4498
Ar              0.0715252              0.3357336             -0.4955106
Ar             -2.6294153             -1.6170201              0.6176691
Ar              5.9664394              0.7354851             -2.8142742
Ar              3.1993253              0.7672200              1.8084968
Ar              0.3274200             -1.1918290              2.9960820
Ar             -3.3121003              0.6605151             -2.4801954
Ar             -1.2707834             -2.3933078             -2.9148285
Ar             -2.6748287              0.9328120              3.3171500
Ar              3.2234119             -1.3014506             -1.2419761
Ar              1.2551994              0.1582614             -4.0925607
Ar             -1.7463766             -4.3148023              3.0441438
Ar             -5.0793107             -2.6115131             -1.9583051
Ar              0.7691140              3.4574417              1.1695799
Ar              2.9162855              2.4289750             -1.6220928
Ar             -2.7284023              2.9373872              0.2449221
Ar              6.4064646             -0.9320217              0.5732932
Ar              3.5739161             -2.9876691              2.1290491
Ar             -5.5000319             -3.5293376              1.7698497
Ar              6.0632343             -3.0872778             -2.7264817
Ar              0.5138178             -3.3743207              0.0606809
Ar             -6.2843965              3.6644212             -0.8112581
Ar             -5.6358620              0.3355371              0.7175742
Ar             -0.5201552              3.1450978             -2.7593332
Ar              2.3152537             -3.4380806             -4.0678830
Ar              2.0633843              5.6688260             -3.4924293
Ar             -1.9016535              4.6656893              3.4655015
Ar              0.1075434             -6.0210668             -2.6016115
Ar              3.4320468              5.7822928             -0.0322503
Ar              0.4529166             -6.8642961              1.1041434
Ar             -5.4353309              3.4660049              2.8575669
Ar              3.5066133             -5.2375600             -0.9347096
Ar             -2.7798711             -5.1891957             -0.4229920
Ar             -7.0475856              0.5269209             -2.7901372
Ar             -4.0277531              6.3738202              0.8154983
Ar              1.0787091              6.8223952              2.7435856
Ar              5.6754542              4.5781780             -2.9174035
Ar             -3.3343174             -5.2475851             -4.1427753
Ar              5.9602618              2.8767972              0.4550428
Ar              0.7576811              2.1568301              4.5947712
Ar              3.7600529              4.1448596              3.3384460
Ar             -0.5436714              6.2845814             -0.6898013
Ar             -3.5548577              5.1808152             -2.7774612
