42
Energy:            -186.1226
Ar              0.4107652             -0.9197168             -0.9104576
Ar              2.1753969             -2.4483639              1.8795193
Ar             -1.0581564              2.0986909             -2.1828591
Ar             -0.3408256              2.0455853              1.4107501
Ar             -1.4757827             -1.0029189             -4.2479297
Ar              3.0750796              0.9853939              0.7519532
Ar             -1.3141822             -1.3096079              2.3007692
Ar             -3.0957975              1.4573268              4.0447481
Ar              3.8739707             -1.9868261             -1.5104251
Ar              2.5065057              1.2103240             -3.0109887
Ar             -3.1274754             -1.5562849             -1.0107689
Ar             -3.7607176              1.6399256              0.4351654
Ar             -5.4129798             -2.2861823             -3.8290944
Ar              2.3747169              4.0086885              3.0527628
Ar              1.4222701              0.5265793              4.1986064
Ar             -4.4550133              1.3023326             -3.2844514
Ar              4.1143737             -1.9360903              5.0280179
Ar             -5.7498347              4.2178061             -1.1782891
Ar              6.0725972              1.0058330             -1.4466093
Ar             -4.7275995              4.6430226              2.4858993
Ar              5.3221892              3.9552819              0.7537165
Ar              6.4756192             -4.4687129             -0.4945316
Ar             -2.0133993              5.0197120             -0.0816958
Ar              5.8052570             -1.4234879              1.6388843
Ar              1.0323194             -5.8720712              2.9536824
Ar             -2.9712776              4.8300329             -3.7471485
Ar              1.7335831              4.2215439             -0.6637860
Ar              0.9086786              4.4473957             -4.2984747
Ar              4.6567802              4.2460216             -2.9921876
Ar             -4.9374052             -1.6146761              2.3213672
Ar              1.0608277             -3.6756770             -3.2837741
Ar             -2.6054410             -4.5950759              3.3435781
Ar             -4.6128621             -4.6991435              0.0744169
Ar              0.3949689             -2.9500142              5.1879452
Ar             -2.5548008             -4.5847063             -3.1749868
Ar              5.1068003              1.5479173              3.8140619
Ar             -6.8607431              1.5997634              2.4787182
Ar              2.7881571             -5.3937014             -0.3817728
Ar             -1.2186344              4.7760443              3.7190644
Ar             -6.6992697             -0.3729561             -0.7772744
Ar             -0.7580407             -4.2753020              0.0825691
Ar              4.7488137             -4.9434771              2.8416781
