42
Energy:            -181.4126
Ar              0.5078367             -0.1279403             -0.7050684
Ar             -2.9509273             -1.2577245              0.0025255
Ar              3.7081213              1.6578433             -0.1655739
Ar             -2.3383818              2.1786470              0.3047443
Ar              1.8853314             -3.0994218              3.6918674
Ar              3.0146341              0.4530229              3.2055404
Ar             -2.6212815              0.7425997             -3.1202182
Ar             -3.7086242             -4.8019781             -0.2941321
Ar              0.0986608              3.2514235             -2.2166296
Ar              3.4212914             -2.0815473              0.4974891
Ar             -0.2014306             -3.5212061              0.6327191
Ar              0.8484994              3.0140437              1.5935609
Ar             -5.4191181             -2.1674143             -2.6057134
Ar             -3.0906250             -3.0948840              3.1602819
Ar             -5.2431638              4.1230482              1.3968712
Ar              4.0580658              4.1109519              2.9212198
Ar              2.8186948              5.2771025             -0.5990343
Ar              6.9590679             -1.4339497             -0.0937378
Ar             -2.2241168              3.6569261              3.6650158
Ar              5.7428030             -1.9334148              3.5584871
Ar             -6.2995732             -2.0068685              1.1275348
Ar             -3.7767625              4.2911573             -2.2878750
Ar             -1.7565154             -2.8781464             -3.0374013
Ar              4.2977507             -0.6605611             -2.9000903
Ar              3.5421128              2.9198198             -3.6440178
Ar             -4.3397653              0.5937273              2.9666884
Ar              0.8934556              0.0558004             -4.3295216
Ar             -0.6435149             -0.1939719              2.8430908
Ar              5.4036038             -4.1538447             -2.2019773
Ar              1.7917832             -3.3174491             -2.5948973
Ar              6.6053271              1.4928300              2.1245246
Ar             -1.3946794              5.7334441              0.3812266
Ar             -6.0446050             -5.4389280              2.6169206
Ar              6.1164896             -4.8619858              1.3793650
Ar              6.9431576              1.8728188             -1.9100345
Ar              7.8295169             -1.4854200             -3.7300531
Ar             -5.6788674              1.1683903             -0.9050515
Ar             -7.4380655             -4.9339309             -0.9251304
Ar             -7.9091068              1.3117585              2.0976821
Ar             -9.4478881             -3.7225957              2.1165300
Ar              2.7183783             -5.7509352              0.1605275
Ar              0.9901584              2.6804000              5.3074852
