42
Energy:            -184.7614
Ar             -0.1404261             -0.2053499             -1.3037694
Ar             -1.5382360             -1.2655212              1.9996022
Ar              1.7856785              2.5842549              0.3161704
Ar             -1.5683360             -3.5779721             -0.9783675
Ar             -2.6947668              1.5501237             -3.2730605
Ar              2.1281783             -0.8414505              1.5353449
Ar              1.0911051              1.1945237             -4.4605227
Ar             -0.0132839             -2.4229591             -4.2728441
Ar              0.7468809             -4.2633205              1.9877349
Ar             -0.3815280              4.1528012             -2.1496642
Ar             -5.2631676             -4.0396537             -0.6045299
Ar              3.7183499              0.5105725              4.6783822
Ar             -3.3825012              1.1902869              4.1323190
Ar              4.6858888              4.9951372              0.2971895
Ar              3.5381978              0.2393067             -1.8320439
Ar             -3.9294101              4.7022656             -1.1267756
Ar              4.0450855             -3.1911045              3.6723106
Ar              2.1837163             -3.2231969             -1.3513755
Ar             -3.0025975             -4.6770634              2.3504597
Ar              3.2088342              3.8823066             -2.9402873
Ar             -0.2286333              5.2819632              1.7526799
Ar              3.6174362             -2.0813701             -4.7179289
Ar             -1.9850288              2.1990745              0.7008691
Ar              6.5546516              2.5126377             -1.8882259
Ar             -5.6767693              2.0769234              1.3398309
Ar              0.7471311             -1.8330460              4.9177202
Ar             -6.2771530              2.0948759             -2.3228806
Ar             -5.3454478             -1.6623682              2.5236117
Ar              5.4118317             -2.2304233              0.2972532
Ar             -5.4752259              0.5163786             -5.6118304
Ar             -3.6402091             -2.2507135             -3.8890808
Ar             -3.9796638             -0.5715648             -0.6703935
Ar             -7.0984751             -1.4937808             -2.6691733
Ar              0.2562910              1.6636475              3.6064329
Ar              6.8393715             -1.0857419             -2.9986756
Ar              6.8216701              4.0068948              3.3409481
Ar              3.0588040              4.0560008              3.5091111
Ar              5.1320306              1.3621369              1.3614860
Ar             -1.2503799              3.7745754             -5.8594533
Ar             -2.9249002             -2.3664077              5.3407064
Ar             -1.8282598             -0.0244908             -6.5259703
Ar              4.8865512              1.4098969             -5.1691351
