42
Energy:            -185.8606
Ar             -0.0483868             -0.7881810              0.8822526
Ar             -0.3589700             -4.0611003             -0.9563729
Ar              2.8579591             -2.4648136             -0.2474427
Ar             -2.7196345             -2.8837153              1.9997226
Ar              0.6908489              2.3435534              2.5585422
Ar             -0.7286415              1.9678597             -1.4915542
Ar             -2.7350077             -1.2500022             -1.3829546
Ar              2.9442120             -0.6309015              3.0475210
Ar             -3.0780562              1.1905710              1.2945327
Ar              2.5552463             -4.2601044             -3.4304496
Ar              0.7079409             -1.0166155             -2.9586454
Ar             -4.0158128             -4.7089333             -1.2208236
Ar              0.4447250              5.9435058              3.5099591
Ar              2.6617571              1.1369480             -0.3891645
Ar             -3.4941373              4.1379992             -2.6286895
Ar              0.9114449             -3.8789607              2.6672188
Ar              4.8699366             -3.8887905              2.4195567
Ar              2.1259052              4.7180672              0.1396514
Ar             -1.5474910              4.6520060              0.6951462
Ar             -1.7911639             -6.4440589              1.4949485
Ar             -5.9185060             -1.8095836              0.4558881
Ar             -5.1941830              4.2368858              0.8494165
Ar             -5.4640521              1.2445817             -1.6256410
Ar              3.8121864              5.7609165             -3.0094785
Ar              4.4905363             -0.7321521             -3.0814289
Ar             -3.3492274              6.8873343              3.0179262
Ar              5.8894520             -0.5140038              0.5433258
Ar              2.6710531             -6.1044116              0.0511698
Ar             -3.4457610              7.4165169             -0.8040285
Ar              2.2175808              2.4342030             -3.7690544
Ar              5.6679803              5.8742086              0.3703711
Ar             -5.5455486             -2.0382822             -3.5591692
Ar             -4.9340890             -0.5457032              3.9584447
Ar             -0.0306033              5.4637541             -2.7617898
Ar             -2.5347714              3.3692130              4.1785887
Ar              5.6395448              2.7038025             -1.6734723
Ar              4.5842677              2.7428138              2.2641540
Ar             -1.1296593             -0.3707641              4.3530954
Ar             -1.9532284             -3.3175083             -4.3165994
Ar             -5.5380444             -5.2503370              2.1901334
Ar              5.9156326             -4.0132132             -1.3786922
Ar             -2.6595733              0.7072267             -4.4379291
