42
Energy:            -186.4578
Ar              0.6437607             -1.3103862              0.4314103
Ar             -3.0233710             -0.1728641             -0.1736072
Ar              2.7862785              0.2711585             -1.8527986
Ar              4.3203927             -1.5379981              1.0950600
Ar             -4.1383685              0.3028278              3.4731862
Ar             -5.9575226             -0.0322957             -2.5746014
Ar              2.6236505              1.8317533              1.4943744
Ar              0.8607650              1.9206083             -4.5346327
Ar             -0.6207522             -1.1531598             -2.9708599
Ar              5.8698724             -1.5933905             -2.5598517
Ar             -0.7921398              1.0782412              2.5775574
Ar              5.0221659              0.7900192              4.0685247
Ar             -2.8321422              1.8802011             -3.3477425
Ar              1.6719030             -4.4060538              2.0703326
Ar              0.0884050              4.6134024              1.8594025
Ar             -1.9563495             -2.6205271              2.4731013
Ar              2.6920605             -3.4586305             -1.6869815
Ar              4.8950770              1.9059714             -4.2911571
Ar             -3.3834826              3.2682506              1.1814772
Ar             -3.9352964             -3.1438373             -2.1660417
Ar             -1.3873178             -0.3715624              5.8867604
Ar              1.4823533              2.4756672              5.0604751
Ar              5.8554748              1.6724159             -0.4231052
Ar             -2.3522999              3.4097863              4.8829768
Ar             -4.3766246             -2.9155667              5.2535187
Ar              1.7905577             -1.1622457              3.9558192
Ar              2.9669919             -1.3738743             -5.0338153
Ar             -6.5569589              1.1654259              0.8525799
Ar             -5.6008617              3.7305269             -1.7528870
Ar             -0.7999573             -4.4373370             -0.8198720
Ar             -0.2198072              2.0741085             -0.8783051
Ar             -5.5299091             -2.4807160              1.3072075
Ar              0.4863363             -4.2851098             -4.5759717
Ar              2.8412396              3.9735589             -1.6757125
Ar             -3.6372438             -1.1656657             -5.3267044
Ar             -1.9190844              5.2070365             -1.6868839
Ar             -7.5961236             -0.7312034              4.0322849
Ar             -0.2333015             -1.1816408             -6.7535933
Ar              4.4883093             -4.7416373             -4.6635814
Ar             -2.1161553              2.0344494             -6.9676887
Ar             -0.2951954             -3.9758186              5.4530516
Ar             -6.1029738              3.3989968              3.8641725
