42
Energy:            -186.6163
Ar             -1.3152963              0.5560059              0.4367050
Ar              0.1620829             -4.8210543             -0.6672747
Ar             -1.2704999             -2.6643336              1.7100657
Ar              1.8090046              2.3314615              0.2102493
Ar              1.6879801             -1.3890589             -0.6377392
Ar             -1.4597379              3.8621117             -0.6414269
Ar              1.2159145             -0.1790492              3.0497747
Ar             -3.6316532             -4.8751571             -0.0216903
Ar              0.0710981              1.2930739             -2.9373658
Ar              2.8942651             -0.6557836             -4.3589490
Ar             -0.7303413              3.1305602              2.9612602
Ar             -1.7664230             -1.9886239             -2.0769140
Ar             -4.5145501             -1.2263035              0.5043370
Ar              1.4276213              4.9093403             -2.6261133
Ar             -2.3237009             -5.4997684             -3.4459116
Ar             -2.5793279             -0.0035158              3.8921584
Ar              2.9595808              3.7682755              3.3687383
Ar              0.8699175             -3.6644965             -4.0649890
Ar              1.8620004             -4.1676195              2.7403498
Ar             -2.0956655              4.2542838             -4.1953022
Ar             -5.2488439             -2.8535497             -2.8361896
Ar             -1.3247459             -6.2026822              2.6716089
Ar              3.8329026             -4.5152759             -0.4180682
Ar             -0.7481391             -3.0690208              5.2810333
Ar             -3.7570455              1.3131605             -2.2411699
Ar             -4.8010680              5.0270195             -1.4128492
Ar              5.3163836             -1.1614029             -1.5618752
Ar              4.1608998              2.3079693             -2.5945560
Ar              0.9225781              6.0501562              1.0083860
Ar             -4.2775262             -3.4875489              3.5869667
Ar             -4.2678666              2.5087936              1.4826678
Ar             -2.8101679              6.1302197              1.8938872
Ar              5.3567662              1.7282855              1.0046849
Ar              2.1267953             -7.0213639             -2.8166580
Ar              4.4705078             -1.6915351              2.0313183
Ar             -1.5713089              7.3185099             -1.7066066
Ar              1.9317837             -7.5654806              1.0273313
Ar              4.3299279              5.1491408             -0.0894526
Ar             -1.4699944             -8.0766439             -0.7261434
Ar              0.1267478              6.3237495              4.6311494
Ar              4.5694448             -4.0609762             -4.0079171
Ar             -6.2890061             -0.0993030              3.5701050
