42
Energy:            -187.1033
Ar              0.5005170             -0.8126057             -0.2067218
Ar             -2.2016056              1.1748612              1.4313417
Ar             -2.9933909             -1.9817071             -0.4592441
Ar              3.3624113             -3.3435798              0.3659966
Ar              3.9698030              0.3436247             -0.1203159
Ar             -1.1534611             -2.0955300              2.8356011
Ar             -4.0883053              1.3674894             -1.7897531
Ar              1.6755872             -3.0397410             -2.9038788
Ar             -0.4150071              2.5638432             -1.5070216
Ar              1.3520551              2.3330525              1.6818811
Ar              1.5447349             -4.6444641              3.3739102
Ar              3.2203100              3.7728910             -1.1942436
Ar             -1.3553462             -0.5165087             -3.4317593
Ar             -1.3432463              4.3784777              3.2419064
Ar              2.0925264              0.6509228             -3.2774027
Ar              2.3427447             -0.9546388              3.0086646
Ar             -2.5166700              4.1438675             -4.0120342
Ar             -1.7939185             -4.9295459              5.1948155
Ar             -0.3445021              1.0301151              4.7423403
Ar             -1.8703189             -4.1788878             -3.3707481
Ar             -4.1584378              1.1565308             -5.5539916
Ar              0.6928927             -2.2740558              6.1758710
Ar              4.3359470             -2.9861152              5.3816280
Ar             -3.5726183             -4.8055166              1.8856233
Ar              4.7719160              1.9522267              3.1543209
Ar              4.6107765             -1.6235206             -4.8666398
Ar             -4.8153778             -1.2367889              2.7031703
Ar             -4.0029679              1.9906051              4.5728553
Ar             -4.9313490             -1.9353694             -3.6098235
Ar             -0.5232880              1.7112989             -6.2357145
Ar              5.6553189              1.6201710             -3.2535609
Ar              3.3539934              1.6375994             -6.5466876
Ar              1.1405235             -1.5700614             -6.2444944
Ar             -2.5381339             -2.0868909             -6.5769393
Ar             -3.1718763              4.5707563             -0.0686181
Ar              3.1554156              0.5730597              6.2875715
Ar             -0.2380804             -4.4793149              0.0562588
Ar              6.3484889             -2.0170442             -1.5765909
Ar              6.0391948             -1.5542367              2.3231128
Ar              2.0519372              3.9432097              4.9672591
Ar             -2.9869194             -1.3848285              6.0051629
Ar              1.4051959              4.2296611             -4.3871039
