42
Energy:            -187.6826
Ar              1.7245071              0.8799723              0.7152069
Ar              0.9874805             -2.6892450              1.5942754
Ar             -1.6016485             -2.5394558             -1.3920440
Ar             -1.1973891              1.0511236             -1.3854773
Ar              0.5210777              4.2895632             -0.7684523
Ar             -1.2294771              2.7947329              2.1177593
Ar              1.9065124             -1.8856227             -1.8827180
Ar              2.2842412              3.9354875              2.6266411
Ar              0.6991993              0.0282073              4.1176091
Ar             -1.9866025             -0.6946703              1.6926882
Ar              2.0634560              1.5363670             -2.9822557
Ar              5.5667674              1.4623883             -3.9616322
Ar             -0.8657120              3.5388374             -4.1662461
Ar              3.6200338              1.7491223              5.4715240
Ar             -3.5225405              4.3263463              4.6166580
Ar             -3.8791479             -2.4637818             -4.1841866
Ar             -2.3209578             -4.7304169              1.3920667
Ar              5.6495307              2.2067505              2.3467730
Ar             -1.5478949             -2.9940243              4.5584662
Ar             -5.0830465             -2.2216002              2.6643025
Ar             -0.0496036             -4.0226339             -4.4185822
Ar              4.2739911             -3.8154671              0.1385002
Ar             -0.6532018             -0.4090384             -4.6647257
Ar              2.1483539             -3.2962674              5.1765024
Ar             -3.9072146              1.4061814             -4.0566542
Ar             -2.5935029             -5.9635148             -2.4205383
Ar             -3.5315035              3.7283519             -0.8392856
Ar             -4.6309940             -0.2913442             -0.8899631
Ar              4.9616955             -0.0763975             -0.5904675
Ar             -2.8134662              0.6156554              5.0852034
Ar              2.9566067             -1.3751817             -5.3393746
Ar              4.1860979              3.5829280             -0.7462392
Ar              0.0391713              3.3336190              5.6311006
Ar              2.6688540              5.0614037             -3.8799534
Ar              4.0962136             -1.1103764              2.8869951
Ar              5.1454608              5.1409649              4.7232321
Ar             -5.2252633             -3.8955909             -0.8070835
Ar              3.4112366             -4.9653564             -3.4779833
Ar              0.8029612             -6.0836636              2.9759289
Ar             -4.8570776              1.7302830              2.1722082
Ar              5.9514899             -2.3219035             -3.2630135
Ar              0.7886057             -5.4122394             -0.8502742
