42
Energy:            -186.0251
Ar             -0.2715575             -0.2170443              0.2400481
Ar              1.1531673             -3.4966375              0.1078267
Ar              4.6158002             -2.7146366             -1.0146471
Ar             -0.6820705              3.0510924             -1.7713562
Ar              1.8987059              2.9023000              0.7264878
Ar             -2.6377144             -0.3625874              3.3471394
Ar              2.5206324              0.7363744             -2.1604435
Ar             -1.8502882              2.8589029              1.6667731
Ar             -1.8558657             -3.1850308             -2.0869216
Ar              3.2527333             -0.4496854              1.5330702
Ar             -0.8730608             -0.0031550             -3.5788116
Ar              2.8846618             -6.5872810             -0.4817739
Ar              3.8904749             -4.0601041              2.5308553
Ar             -0.5217871             -0.5301990              6.6077241
Ar              0.6908333              1.1959177              3.6155940
Ar              2.6105316              4.6854984             -2.4086009
Ar              0.6641923             -2.3742667              3.5271839
Ar             -4.2888338             -1.1904123             -4.2309711
Ar              0.7678501              4.8865141              3.7482190
Ar              0.4685731              3.1089770             -5.2318830
Ar             -3.6016700              0.6702476             -0.9323900
Ar              4.0364319              2.8173478              3.7416640
Ar             -3.4447073              2.6400258             -4.2008605
Ar             -1.1266348             -3.0059634             -5.7821831
Ar             -2.7931165              6.0983173              3.0712394
Ar              1.6884291             -0.2848542             -6.2328111
Ar             -2.2771644             -3.5604371              1.5375850
Ar             -2.0303079              2.9020646              5.4296110
Ar             -0.1724110              6.0461717              0.2769087
Ar             -3.8240596              4.7395111             -0.8191485
Ar             -1.0154413             -6.5190486             -0.4868828
Ar              3.5219547              6.1013163              1.3646074
Ar             -2.2666549             -3.7221992              5.2962604
Ar              4.3086045             -5.2412119             -3.7164923
Ar              1.6552525              2.6724568              6.8033707
Ar              1.6608251             -2.5927503             -3.3053298
Ar              3.3646949             -0.6127424              5.3928490
Ar              4.1819284              2.3391383             -5.0565018
Ar              0.5483819             -5.9912965              2.8570886
Ar              0.5442748             -5.9830990             -3.8163537
Ar              2.4484897             -3.9458450             -6.6746474
Ar              4.8839976             -1.4235188             -4.5816717
