42
Energy:            -182.5445
Ar              1.4775812              0.3439689             -0.0793169
Ar             -0.0717100             -1.0683491              4.4932975
Ar             -1.6986217              0.3339798             -2.0429337
Ar              1.5107862             -4.3983211             -4.1311523
Ar             -1.4609686              3.3396846              0.0537801
Ar             -0.1140814              2.4916970              3.3131361
Ar             -3.9152956             -2.3690371             -0.9050213
Ar              1.2780904             -0.7752145             -3.5814596
Ar              2.3913139              3.7493824              0.6844133
Ar             -1.6002082             -3.7826164              2.4164342
Ar             -0.1478695             -2.9256087             -0.9004036
Ar             -1.8738808             -2.6506628             -4.2228176
Ar              2.2354071             -2.6146527              2.0052113
Ar              5.3027267             -0.1372817              0.6176224
Ar             -3.9453360             -1.1641634              4.2626583
Ar             -1.8261892             -0.2240262              1.4477399
Ar              3.0370558              0.7845024              3.2791077
Ar             -3.0318767              3.4744464             -3.3863054
Ar              0.8133571              2.9067648             -2.8942049
Ar             -4.7767665              1.4067603             -0.3948437
Ar              3.6294022             -2.6288370             -1.5250468
Ar             -1.2893132              0.8499494             -5.6103930
Ar             -0.5324051              4.3965215             -6.1239895
Ar              4.2932192             -1.7655093             -5.3008361
Ar              1.2125082             -4.6169211              4.9738888
Ar              2.9793129              4.3485958              4.4330181
Ar             -0.0913701             -1.4261787              8.1349185
Ar             -0.4414074              4.8457522              6.1558133
Ar              2.3652650              1.6067485             -6.1476838
Ar             -4.7530447              0.1157669             -3.9879447
Ar              1.5434547              1.6372714              6.6455897
Ar              4.1820967              1.2292695             -2.6671515
Ar             -2.2038535             -3.8652225              6.1489254
Ar             -2.1491424              1.4470177              6.3066559
Ar             -3.8132714              2.5084544              3.0808754
Ar             -3.7076552             -1.4389473             -7.2544211
Ar              0.7028323             -1.9672390             -7.0218170
Ar             -5.4800404             -3.5226786             -4.3100713
Ar              3.2680985             -1.6754915              6.0589354
Ar              5.2650490              1.6692889              6.1123340
Ar             -4.2669625              2.5609590             -6.8822818
Ar             -3.9562771             -1.2360440              8.1288226
