42
Energy:            -183.2129
Ar              1.1435540             -0.3834615             -0.2997892
Ar              1.6108664             -3.1831703             -2.5508554
Ar              3.5402747              2.3767204              0.0358429
Ar              0.2332255              2.3306157              1.9001704
Ar              1.3528584             -3.5355515              1.2388522
Ar              0.2993838              2.5813784             -1.9557013
Ar             -1.5781665             -2.7279645             -0.7036107
Ar             -2.3441303              0.7256658             -0.2887115
Ar              4.4394615             -1.9704823             -0.2734480
Ar             -0.1726955             -6.0831078             -0.8434539
Ar             -4.3922959             -1.2974725             -2.6263229
Ar              2.7425102             -0.5039555              2.9897350
Ar              3.5797773             -5.8162128             -0.5480935
Ar             -2.3922780              4.3562472             -0.2654172
Ar              1.1729886             -6.9155753              2.5839065
Ar             -1.0011326              5.5804808              3.0367903
Ar             -2.3578627             -8.0293579             -3.0379471
Ar              3.0016284              0.3940634             -3.3640475
Ar             -1.5780913              7.9181947             -0.1684224
Ar              1.3898211              8.3941381              2.1602192
Ar             -1.0952897             -1.0666249              2.7266344
Ar              1.6710023             -6.5720745             -4.0049302
Ar             -3.0794513              2.4873795             -3.5041197
Ar             -2.4539372             -8.2562882              1.0186582
Ar             -0.7363832              5.7969921             -3.3395722
Ar             -2.0112943             -4.7349569              2.3656449
Ar              4.4280727             -4.1696781              2.9940361
Ar              1.2315834              5.4117341              0.0110066
Ar             -0.7871693             -0.5421467             -3.6313058
Ar              2.7883324              4.6929567              3.2622780
Ar              0.3970499              2.6403311             -5.5521196
Ar              3.0036605              4.6408356             -3.2433214
Ar             -4.5637899             -1.8465986              1.2527630
Ar              1.7587596              8.3908864             -2.0295029
Ar             -1.7032188             -4.3731574             -3.9529649
Ar             -3.4108247              2.4423959              2.8126599
Ar             -4.0609117             -5.3316171             -0.9076026
Ar             -4.5620776              6.1952698              2.0486968
Ar              0.9168895             -3.6042359              4.8234782
Ar              5.0529639             -3.9645846             -3.5216279
Ar             -2.2699768              9.0794117              3.3291422
Ar             -5.6004515              2.3190818             -0.4344587
