42
Energy:            -190.1306
Ar              0.5714007             -2.3508904             -1.1639054
Ar             -2.5428862             -1.8628753              0.6837029
Ar             -2.7445488              1.5248905              2.1907639
Ar              2.7887258              0.1951383             -2.4383494
Ar              2.4017881              0.0374305              1.1128354
Ar              0.0047418             -0.6436748             -4.6247420
Ar             -1.1660869              1.9038906              5.5955721
Ar             -3.9103585             -1.4607281              4.1073124
Ar             -0.2517271             -0.8680494              3.2952801
Ar              2.4848148              0.8467919              5.0100398
Ar              4.4038503             -2.6362642             -0.6309857
Ar             -2.4408685              2.2389527             -3.8799457
Ar              6.0610620             -0.9603313             -3.6608040
Ar             -6.3982080              0.6387063              2.2402535
Ar              3.3726535              0.3532199             -6.0601408
Ar             -4.8187812              2.5559948              5.0590049
Ar              5.0435169              2.8362116             -3.5725227
Ar              5.7539261              0.8854968             -0.3149359
Ar             -4.5106463              1.3656997             -0.9480199
Ar             -4.4299155             -4.7293416              2.0164054
Ar              4.9358910             -1.5108058              3.1510330
Ar             -2.2747632              4.9903997              3.5894632
Ar             -0.5826869              1.0322318             -0.8951345
Ar             -0.7846222             -4.4766288             -3.7408301
Ar              4.4304846              2.8430134              2.5601116
Ar             -1.0386955             -5.3222162              0.3715003
Ar              2.8486003             -3.0808434             -4.1431774
Ar              1.1850442              2.9908601             -4.1606001
Ar              2.0651419             -2.8323385              5.5522000
Ar             -4.0128461             -4.8333248             -1.7458372
Ar             -5.3152266              4.1632610              1.5235980
Ar             -7.0063744             -0.3480730              5.9310578
Ar             -1.9134738              4.3332424             -0.2266397
Ar             -6.0657682             -2.0457479             -0.3393970
Ar              0.6074624              2.9311855              2.4310522
Ar              1.9314316             -3.6656284              1.9686113
Ar              2.2365214             -5.6471192             -1.4213925
Ar             -1.3008111             -1.6541561              6.7999808
Ar             -7.4114834             -2.8427457              3.1428005
Ar              2.5223483              3.4063870             -0.6825812
Ar             -3.0610003             -1.4375526             -2.8798219
Ar             -1.2680231             -4.2871229              3.9931526
