42
Energy:            -183.5371
Ar             -0.4768830             -0.4114037             -0.8852596
Ar              1.8722940              2.6190439             -0.9714564
Ar             -3.8381083             -1.6179396              0.7238325
Ar             -0.6609690             -1.6582591              2.7021866
Ar              0.6543536             -3.2499388             -3.0697744
Ar             -1.2710802              3.9749276             -2.3155948
Ar             -0.4628085              2.5758001              1.8819657
Ar             -1.4493269             -4.3583958             -0.0505750
Ar              1.0193674              1.3096204             -4.2421341
Ar             -3.2723602              0.8351631              3.5495016
Ar              1.8657967             -3.0998376              0.4110294
Ar              2.3185717              0.1934968              1.5694317
Ar              4.4269214              5.2748950             -0.5838620
Ar             -3.3176209              1.8372277             -0.1892847
Ar             -3.1726153             -2.6824849             -2.7821764
Ar              2.8927917             -2.5033872              3.9991292
Ar             -3.1918652             -4.3980966              3.2335410
Ar             -5.0185682              3.6081487             -2.9967943
Ar             -2.6217869              0.8089929             -3.7716174
Ar              3.0262164              3.6837310              2.5395477
Ar              4.6623202              2.5840269             -3.4355535
Ar              3.2750301             -0.6918390             -1.9982178
Ar              2.0077945              5.2784129             -3.5314755
Ar              5.3374737              1.6235894              0.1132447
Ar              4.1974295             -5.5280312              1.8573724
Ar             -7.5861892             -2.2779802              0.4314820
Ar              5.3437829             -1.9829972              1.0611060
Ar              0.5164702             -5.3487495              2.9992192
Ar              0.7437720              5.8723651              0.2914192
Ar             -5.0862738             -5.0295942             -0.0806070
Ar              6.7547117              4.1991621              2.3230279
Ar             -6.4659628              1.0876638              1.5944332
Ar              1.5100913             -6.5600085             -0.7364892
Ar              7.7910774              3.9059221             -1.4948526
Ar              4.4014832             -4.3204918             -1.9152275
Ar             -5.4965332              4.6702149              0.6559798
Ar              1.1602414              0.9402610              4.9202474
Ar             -6.8347027             -3.5309488             -3.0756336
Ar              5.1221938              0.7811011              3.8383453
Ar             -8.2410057              2.7454540             -1.2365649
Ar             -5.9157497             -1.9029196              3.8269638
Ar             -5.8612383             -0.0508218             -2.0651651
