42
Energy:            -184.6577
Ar             -0.2715078              0.2597445              1.0478214
Ar              1.9286995              1.0186989              3.9543445
Ar             -1.4233515              1.1104942             -2.3836736
Ar              1.8552630             -0.4955776             -1.9210267
Ar              0.1713220             -2.5945072              3.5055773
Ar             -1.7141327              2.2858075              3.9569105
Ar             -2.9786699             -1.6990097             -0.5882029
Ar              1.7229977              3.0874652             -2.8380492
Ar              2.9240216              2.2074358              0.6148887
Ar             -4.6705149             -2.7893036             -3.7066998
Ar             -5.1528980              0.7638617             -2.5300160
Ar             -0.4921060              3.8264691              0.0479662
Ar              3.7132104             -2.2490640              4.8686638
Ar              2.9126174             -1.4269948              1.4006369
Ar             -3.0982392             -0.9294548              3.0391872
Ar              4.3416728              0.7556107             -4.4091400
Ar              1.1133194              4.6120459              3.2520420
Ar              5.7179770              0.3977678              2.7985213
Ar             -2.9614245              0.0273392             -5.5783254
Ar             -0.8756112             -2.4628650             -3.5922788
Ar             -3.5944669              1.8785619              0.6499267
Ar              2.5316405              3.5106618             -6.4382422
Ar              5.3823285              3.3797549             -1.9096906
Ar              6.1086781             -3.1972429              1.7370197
Ar              2.7746357             -5.0212234              2.2240706
Ar             -6.2498966             -0.8398423              0.8531066
Ar             -5.0016802              3.1585372             -5.4832431
Ar             -3.4544307              4.2443602             -2.2454267
Ar             -0.3600046             -0.4329238              6.4208763
Ar             -1.2086966              3.5361558             -5.2205417
Ar             -6.2214513             -2.2058351              4.4405348
Ar              4.7156865              1.1070353              6.3950224
Ar              5.4985699             -0.2971072             -0.9496946
Ar              4.6849826              3.8096046              3.6391805
Ar             -4.0057350              0.1379106              6.5359662
Ar              3.8311517             -3.7382591             -1.3096820
Ar             -5.7535271              1.6683380              3.6557737
Ar              0.2337444             -3.4381710             -0.1509580
Ar             -2.7611837             -3.4072742              5.7607437
Ar              0.7554599              0.3738394             -5.4113634
Ar             -2.7850861             -4.4452377              2.0068653
Ar              2.7628447             -2.7316300             -4.7607754
