42
Energy:            -182.7938
Ar             -3.7388733              0.7496674             -0.5556000
Ar              1.4084787             -2.7095601              1.0622096
Ar              2.3791274              2.5762315             -1.4793373
Ar             -0.0591015              0.7371832              0.9392002
Ar              0.3275576             -1.0644574             -2.1012425
Ar             -1.2716600              3.0823688             -1.8040647
Ar             -0.7248003             -1.7683661              3.8184968
Ar             -2.2267822             -2.4265358              0.4695804
Ar             -2.6589768              0.3613089             -4.1161649
Ar             -0.1715085              1.7362714              4.3764954
Ar              0.6906833              1.6967529             -4.5645856
Ar              2.2429875             -3.9378865              4.5330502
Ar             -2.4048590             -3.2714809             -3.3022518
Ar              0.2443112             -1.7766482             -5.6723525
Ar              2.8106774             -0.3662969              3.5590465
Ar             -0.9042471             -3.8827325              6.7757471
Ar             -0.8039942             -5.3011032              2.7540715
Ar             -2.1440233              3.6886521              1.7930610
Ar              0.7089497              5.5430626              0.2090127
Ar             -2.1298592              3.9502597             -5.3943051
Ar              3.0243996              2.6649639              5.9321934
Ar             -3.2652246             -2.1367568             -6.8656813
Ar              1.2370033             -0.6720229              6.8960455
Ar              3.6266684             -3.2762093             -5.9538195
Ar             -3.1559208              3.5453587              5.4637058
Ar              3.0312765             -3.6703319             -2.1255777
Ar              2.7089411             -6.1133133              1.2548733
Ar             -2.4718542             -0.1228251              6.7174405
Ar             -3.5065824              0.4734607              3.1111057
Ar              2.7636210              0.4461583             -7.3503289
Ar              1.0533917              5.3373626             -3.7091057
Ar              3.6311118             -0.3152998             -3.7174460
Ar             -1.1913227              1.0255246             -7.6821019
Ar              3.9239995             -0.3541089             -0.0032429
Ar              1.1968757              4.0247421             -7.3651160
Ar              0.3315689              5.3231382              4.2316885
Ar              2.5909785             -3.8981181              8.2903999
Ar             -0.2464099             -5.2717132             -0.9966606
Ar              2.6245043              3.0424573              2.1866363
Ar             -0.2519819              2.8198966              7.8738983
Ar              0.6383277             -5.2712044             -4.6027751
Ar              4.0343756              3.2450759             -4.9035024
