42
Energy:            -183.4255
Ar              0.5702335              0.3861734              0.0526417
Ar              0.1467866              3.2137331              3.7267741
Ar             -2.2909332             -2.0355637              1.0626147
Ar              2.7926259             -2.4452624             -1.8245413
Ar             -2.5873626              1.2519627              2.4019845
Ar              1.2873841              0.4143407             -3.7330390
Ar             -0.7582461             -2.3275419             -2.2029610
Ar              0.8437296             -3.7528310              0.9426239
Ar              3.5007065             -1.2602021              1.6559989
Ar             -5.0841331              3.1194904              0.2619057
Ar              1.8510504              3.6443852             -1.7471963
Ar              4.0651129              0.8177121             -1.2831428
Ar              1.6507017              5.8135800              1.3162140
Ar              1.1190618             -5.6811129             -2.3012606
Ar             -2.3394996             -4.9333338             -4.2132257
Ar              3.1721233              2.4500666              1.8422177
Ar             -3.2655589              4.8500738              3.1136331
Ar             -2.8194504              0.6637866             -1.2801537
Ar             -5.1150409             -4.2375459              1.7402733
Ar             -1.2632522              3.7536514              0.1318008
Ar             -2.2132524             -5.4212628             -0.4220944
Ar              4.3272821             -4.8855730              0.5861648
Ar             -5.6717753             -0.5143494              0.9713865
Ar             -4.0253482             -1.5628679              4.3169293
Ar              7.5087780              1.2990748             -2.3922747
Ar              2.7469577             -3.9339016              4.1059710
Ar              5.0722004             -1.0233019             -4.3598557
Ar              5.4630271              4.1493907             -0.6741925
Ar             -3.6242311              5.6248153             -2.0775663
Ar             -1.5297087             -4.4470240              3.7170658
Ar             -2.5892531             -0.4340825             -4.7888992
Ar             -5.8789470              1.9692043              3.8523209
Ar              6.6260231              0.9169347              1.3950520
Ar             -4.4690696             -2.6619067             -1.9333203
Ar             -6.9754807              5.3984068              2.5586709
Ar              6.5865306             -2.8074361              2.8641259
Ar              0.2558685             -0.9328158              3.5596070
Ar              6.3929318             -2.0789033             -0.8897388
Ar              4.4530376              2.7732795             -4.3446188
Ar             -5.1062359              2.3844200             -3.5489495
Ar              5.1133037             -4.8950915             -3.1921300
Ar             -1.3366061              3.0625279             -3.6492572
