42
Energy:            -182.2154
Ar             -0.1641572              0.8894842             -0.0004085
Ar             -1.6639001              1.7352180             -3.2233603
Ar              1.1376164             -1.7988300              2.1569698
Ar              0.6544391              1.6079928              3.5069404
Ar              2.0339495              2.2395512             -2.7237432
Ar              0.5534677             -1.2253959             -2.9700927
Ar             -2.3997200             -0.4685470              2.7153657
Ar             -1.5269406             -2.5519355             -0.2524328
Ar             -0.2783706              4.5144304             -0.9130092
Ar              1.8976188             -3.9798532             -0.8228754
Ar              0.0957350              4.6390038             -4.7657142
Ar             -0.9448984             -4.7366940             -3.2375465
Ar             -2.4650131              3.1502377              1.8754226
Ar              1.8284983             -5.3998956              2.6990203
Ar              3.9012866             -0.4284737             -4.4745567
Ar              0.7020925              0.9532545             -5.9941835
Ar              2.7401313              0.7879237              6.4669746
Ar             -3.1592536             -1.6820386             -3.4606105
Ar             -2.4638036              1.9375360              5.5304824
Ar             -3.9012234              0.4629472             -0.5059200
Ar             -3.0073107              0.4826416             -6.5041886
Ar             -3.9598929              4.1124674             -1.4945234
Ar              3.1552661             -2.7552363              5.1258213
Ar             -0.3100928             -1.3470862              5.6122662
Ar             -4.8546208             -2.9141582              1.2312199
Ar              3.6993922              3.7702818              4.3392971
Ar             -1.6745430             -4.0538356              3.2656041
Ar             -0.6449409             -2.4934397             -6.2704702
Ar              0.5695794              3.9763359              6.4014034
Ar              5.3001125             -3.1821863             -2.2406223
Ar              3.3173798             -0.4898298             -0.5807942
Ar              2.8175896              3.0168442              0.7898290
Ar              3.5705832              3.3016444             -5.9452343
Ar              4.1447199              0.2404072              3.0055348
Ar             -3.7743269             -4.5338905             -5.8020684
Ar             -0.9893299             -6.2037290              0.2521425
Ar              0.5113820              5.2524728              2.7754173
Ar              2.4702690             -3.9436592             -4.6283101
Ar             -1.1508771              3.4058670             -8.1008364
Ar             -3.6396681              4.0740940             -5.3050708
Ar              1.7778963             -2.1656526              8.6330409
Ar             -0.3881860              0.9979101              8.5534401
