42
Energy:            -182.3612
Ar              1.5423951              0.6747016              0.3233451
Ar              1.4465412             -2.9980170              1.1419719
Ar             -0.7415425             -1.7500902             -1.3959833
Ar             -0.3201703              1.6326332             -2.7171168
Ar             -0.0633625              2.8504743              3.0233552
Ar              2.5388871             -0.5537850             -3.0820696
Ar             -0.5508153             -0.7110478              3.1551118
Ar              0.2558438              4.3239254             -0.2965910
Ar             -1.3857448             -5.2053178              0.0980949
Ar              4.4926669             -2.8521485             -0.9210442
Ar             -3.9153160             -3.5751771             -2.2170825
Ar             -3.6773840              0.0987609             -2.8861872
Ar              2.9957574              3.2203545             -2.5499502
Ar              3.0010221             -4.0236331             -4.2689783
Ar              4.2954522             -0.8928852              2.3540426
Ar              3.6069771              2.9182032              2.3574073
Ar             -2.1583257              1.2563821              0.3669727
Ar             -3.1762125              3.8651599             -2.1540848
Ar              5.1874479              0.8949631             -0.7301959
Ar              2.5595927             -3.2978826              4.5840477
Ar             -3.3833939             -2.1510430              1.2818402
Ar             -2.3263934              2.2868200             -5.7008119
Ar             -1.2217005             -4.2437583              3.6665324
Ar              2.1080162             -5.8420183             -1.1440247
Ar             -2.9906921              4.7597977              1.5432016
Ar             -3.7131900              1.6950464              3.6210088
Ar             -0.5974289             -4.7272069             -3.5722323
Ar              2.2729148              0.5148115              5.1170077
Ar              1.4871407              2.0501613             -5.8630017
Ar              1.5577842             -6.4415986              2.5718060
Ar              0.6938445             -6.0046018              6.3527085
Ar             -0.0480901              5.0502695             -4.0522472
Ar              1.5377462              4.0845365              6.0896329
Ar             -3.5710520             -1.6730510              5.1313287
Ar             -0.6368470             -1.1901922             -5.0901487
Ar             -1.1980774              1.3382232              6.3190517
Ar             -3.5163496              5.8635132             -5.3413215
Ar              2.8285008             -1.2763614             -6.7962358
Ar             -0.1956856             -2.2044019              6.7133331
Ar             -2.2259391              4.8307056              5.2998946
Ar              0.4623259             -4.1907153             -7.1329038
Ar             -2.8784797             -4.8868847              6.9977258
