42
Energy:            -191.2293
Ar             -0.6761050             -1.6017543             -1.1311614
Ar              2.2310817             -3.9081290             -0.7201226
Ar             -0.2948182              1.4396992             -3.0869292
Ar             -1.0301953             -4.7337772              0.9245703
Ar             -2.3649351              1.5995138             -0.1038036
Ar              4.7239483              2.8102095              0.5414507
Ar             -3.8904923             -3.4261175             -1.1318021
Ar              4.3064032             -0.9632251              0.5362940
Ar             -0.6586005              1.3682740              3.2115164
Ar              1.5947310              4.2985163              2.2786157
Ar              1.3642423              1.2705355              0.1340806
Ar              3.0926634              1.0716776              3.4497123
Ar             -2.1820717              4.6051446              2.1014299
Ar             -3.5407052             -0.2577144             -3.2102908
Ar              2.9982162              3.0403666             -2.8125894
Ar             -5.6166169             -0.2240768             -0.0741851
Ar              1.0344819             -1.8113588              2.1685512
Ar             -3.2477179              3.5978243             -3.2054937
Ar              2.5688267             -4.0452971             -4.4956298
Ar              1.0434701              1.2168888              6.5592989
Ar             -4.7745068             -1.4101443              5.0789064
Ar             -2.6852502             -1.5070962              1.9553511
Ar              2.5645489             -0.7685673             -2.7271959
Ar              2.7586203             -2.0250098              5.5107804
Ar              6.0686754             -1.1697997              3.8288977
Ar              5.5441776             -3.0723062             -2.3058349
Ar             -0.3716726             -1.7383031             -4.9200569
Ar             -3.6409330             -3.5881905             -4.9114646
Ar             -2.7260566              1.5382545              6.3116240
Ar             -4.4567279              1.6793352              2.9746619
Ar              0.1300409              4.5011824             -5.0000066
Ar             -1.0055968             -1.7163400              5.3170799
Ar             -2.0034461              1.4695586             -6.3020171
Ar              4.0061093             -4.1014252              2.5682827
Ar             -0.1114197              4.5333246             -1.1004196
Ar              1.9203118              1.1460563             -5.9853404
Ar             -5.9555003             -3.3420123              2.0286640
Ar             -3.0524637             -4.6278409              4.0677002
Ar              5.9551674              0.7290926             -2.4158959
Ar              0.7128877             -4.9308097              4.2340407
Ar              4.8878487             -1.1838394             -5.5719769
Ar             -0.7554318             -4.8902193             -2.8449515
