42
Energy:            -188.9221
Ar              0.2370574             -0.5287876              0.4156664
Ar              2.7638246              2.0307726             -0.4236770
Ar              3.7637787             -1.6842168              0.0846492
Ar             -3.1275990             -0.1109664             -1.8758278
Ar              1.0486119             -3.9863952              0.6285948
Ar             -0.8286997              2.8542971              0.5816748
Ar              5.9918781              0.7282432             -1.6245481
Ar             -3.1190735             -0.0119110              1.7879902
Ar              5.5506302              4.0157689              1.2045502
Ar              0.1092401              1.1752914             -2.9058102
Ar             -3.6449646             -0.4182480              5.4436694
Ar             -5.9082108             -1.8346646             -0.1004531
Ar             -5.2782769              2.3758444              0.0970615
Ar             -0.5537215              4.9251731              3.6543276
Ar              5.3849730             -3.1294643              3.4723853
Ar              2.3378927             -1.0949765              3.4256573
Ar              2.4857002             -4.9745640             -2.5736191
Ar             -0.9933413             -2.5738094              3.5906245
Ar              2.6267844              2.6781732              3.2132572
Ar             -2.4208872             -3.1178774              0.2239803
Ar              2.9776488             -1.1306832             -3.4065422
Ar              0.7225714              4.7491340             -2.4219303
Ar              3.4434832              2.4707410             -4.1015448
Ar              5.5825603              0.5258992              2.3348613
Ar             -4.0166648             -3.7020519             -3.0030760
Ar             -0.3594224             -2.5651009             -2.7292506
Ar             -6.5457942              0.2236241              3.0607216
Ar              7.4783638             -2.1709541              0.5291138
Ar             -4.8625892             -5.7848988              0.1615031
Ar              2.0772161             -5.0167849              3.9073046
Ar             -0.5619682              1.1688113              4.0431711
Ar             -2.8404948              3.5938378             -2.4836018
Ar             -1.1964390             -6.1004668             -1.5520972
Ar              5.8734068             -3.3003180             -2.5975451
Ar              1.9815572              5.5225238              0.9463434
Ar             -4.6638349             -3.2842650              3.1543017
Ar              1.5900689             -7.5765206              0.6777237
Ar              4.3909167              5.3543651             -2.0059028
Ar             -3.2165479              5.6020088              0.8084328
Ar              4.6213399             -5.2577922              0.5312396
Ar             -1.5887017             -6.0631129              2.3166375
Ar             -3.8477163              3.0665334              3.5867787
