42
Energy:            -188.2643
Ar             -2.1487488              0.3188648              0.4506029
Ar              0.0455959             -2.4680275             -0.5418482
Ar             -1.4386380              3.7058524             -0.8754864
Ar              0.8670523              2.1979323              1.5778664
Ar             -2.9621528             -3.0838279              1.7681502
Ar             -0.5862803             -1.7010617             -4.0863979
Ar             -2.5555410              3.3542796              2.6570393
Ar              0.7387021              0.9195694             -1.8804845
Ar              3.0274833             -1.9303834             -2.8544716
Ar              0.1792631             -1.1810598              2.9131255
Ar              3.3593396             -3.0236507              3.4907319
Ar             -0.1359933              1.8118011              5.1389536
Ar             -0.2374563              3.5817197             -4.3486170
Ar              0.0566567              5.9142183              1.6574150
Ar             -3.7635597              6.2127448              0.4223603
Ar              2.0584715              0.6842498             -5.3557882
Ar              3.4466060              4.1547051             -4.7978047
Ar              2.1433094              4.3810591             -1.2594300
Ar             -1.7199947             -3.3511818              5.2767873
Ar             -3.2452976             -0.0830788              3.9957168
Ar             -2.8459665              1.1208940             -3.1303581
Ar              3.3077327              0.7077397              4.0864405
Ar             -1.3986682             -2.8599940             -7.5614237
Ar             -3.9200269              4.7405278             -3.3652873
Ar             -3.5550301              2.9287207              6.2750111
Ar             -1.8646997             -5.6376946             -0.7947758
Ar              0.9920940             -5.0216248             -3.1697971
Ar              0.2572651             -4.8941664              2.3269396
Ar              1.4810779             -5.2322571              5.8886759
Ar              1.3730972             -1.4817946              6.4253521
Ar             -1.4834643              0.8603444             -6.6497493
Ar              2.1193685             -3.0504460             -6.2899182
Ar             -3.5090723             -2.3374909             -1.8229712
Ar             -2.0500933             -0.3502724              7.5585609
Ar              4.5155584              2.8637335              1.2333732
Ar             -4.9651572              2.6205842             -0.2879442
Ar              4.3810253              1.5015158             -2.2998174
Ar              2.4738816              4.3928369              4.1161464
Ar              3.1104621             -0.6230934              0.6026698
Ar              3.1559913             -4.4171162             -0.0328169
Ar             -2.5359815             -4.8482473             -4.4841479
Ar             -4.1882688             -1.5258204             -5.4227512
