42
Energy:            -181.4722
Ar              0.0894030              0.4926156             -0.4589363
Ar              2.8063143              2.6214301              0.6143099
Ar             -2.2020541             -2.1887405             -0.2929297
Ar              1.3514754             -3.0613720             -0.6934618
Ar             -0.4944770              3.2936206              1.9279435
Ar             -1.6993035              3.4882677             -1.5271293
Ar             -0.3734012             -3.6248678              2.4817675
Ar              1.5456484              2.6877857             -3.0986587
Ar              0.4617417             -5.0596284             -3.8120225
Ar             -3.8976723              4.8003269              1.2547893
Ar              2.6055121             -0.8412451              1.8766353
Ar             -3.3816328              1.0929978              0.8904556
Ar              3.1049639             -4.6017226              2.5481429
Ar             -1.3190398             -5.7263746             -0.6583585
Ar             -0.7131325              6.6387227              0.1844746
Ar              5.9650557              0.6970570              0.9100683
Ar              3.4995386             -0.1913265             -1.7935026
Ar             -5.3857001              2.8498638             -1.7199679
Ar              5.1493291             -3.0096089             -0.0309499
Ar             -5.7057057             -1.1002988             -1.0163741
Ar             -2.9921612             -3.5146275             -3.5417301
Ar             -2.8292956              0.3066554             -2.9640968
Ar              5.6831593              4.8218498              1.1841649
Ar             -3.2467801              2.6312042              4.3336897
Ar             -0.7901748             -0.1143007              3.2605066
Ar              5.2592926              3.0842821             -2.1634145
Ar             -0.1906669              6.1474923             -3.5949162
Ar              2.8660007             -6.3159513             -0.9613351
Ar              0.6352846             -7.3589288              1.9683599
Ar             -2.9665061             -6.1479844              2.8042526
Ar             -3.9737248             -2.2577257              2.8678836
Ar             -1.5352170              6.2097578              3.9075801
Ar              5.5876168             -2.0091059              3.6900400
Ar              2.7120779              5.8011952             -1.2179055
Ar              3.7963675             -3.4760599             -3.5213230
Ar             -4.9011391             -4.6808037             -0.1252506
Ar              0.6033664             -5.7717903              5.3351806
Ar              4.3764062             -8.0705841              2.0492107
Ar             -3.7944544              6.4583668             -2.1525751
Ar              1.8608495             -2.1895077              5.2163558
Ar              2.1691407              5.8267094              2.5438990
Ar              0.4405363             -1.2552325             -3.7667417
