42
Energy:            -181.2418
Ar             -0.8801880             -1.6692344              0.6739800
Ar              3.4730605              1.5981003              1.9601509
Ar             -0.4043609              1.4960235              2.3773949
Ar              0.0429625             -2.1624862             -2.9455308
Ar             -2.1559239              0.7091080             -1.7430339
Ar              1.5074093              0.7560562             -1.0590140
Ar              1.9007766             -1.4354956              3.1608103
Ar             -1.7929520             -1.6289046              4.2130726
Ar             -3.6245237             -2.7481098             -1.6445804
Ar              2.2720759             -3.0957778             -0.2141675
Ar             -0.1956666              4.0505529             -0.1687206
Ar             -1.9654076             -5.0299981             -4.2102983
Ar              2.9208383              6.1457223             -0.3355907
Ar             -2.0961585              4.0635818             -3.3225770
Ar             -3.4249050             -4.2456163              1.8714216
Ar              1.7886352              4.0391944             -3.2579843
Ar              1.7116560              4.6380463              2.9643475
Ar              3.7301241             -2.5944870             -3.6529844
Ar             -1.9793760              4.9916208              3.1234675
Ar              0.0540432              1.1149836             -4.6961766
Ar             -4.2953251             -0.6130480              1.4094474
Ar             -3.6051644              1.7492522              4.2710899
Ar             -0.8524933             -5.0316511             -0.6708425
Ar             -2.9209759             -1.2412078             -4.9894489
Ar              0.2574671             -4.6899059              2.8079290
Ar              5.4085066              4.8292620              2.1595624
Ar              5.0046984             -0.6956003             -0.6602691
Ar             -3.1361639              6.4295982             -0.3833817
Ar              3.7803138              1.0115746             -4.0917727
Ar             -4.1572925             -6.4837917             -1.3132288
Ar              1.7504979             -5.6334399             -3.1951141
Ar              0.2633347              7.3696201              5.0946684
Ar             -3.7305596              2.9400885              0.6388711
Ar             -0.0693341              7.1720566             -2.4172925
Ar              4.1489070             -4.4996196              2.5927629
Ar              3.3885928              7.9994197              2.9411264
Ar             -3.7826224             -8.3100371             -4.6210193
Ar              4.7522840              3.0439424             -1.1607617
Ar             -0.0362448              7.6385240              1.3353614
Ar              2.1818559             -6.8959124              0.3269386
Ar              5.1967029             -5.0551101             -1.1657405
Ar             -0.7802929             -8.3027098             -2.2906499
