42
Energy:            -187.0049
Ar             -0.2214862              0.3945024              1.7003122
Ar              1.5094573             -1.4859059             -1.2527784
Ar              3.1954358              1.2733241              0.6315988
Ar             -2.0575114             -1.0797483              4.5525284
Ar             -2.0468198             -0.7181790             -1.3851668
Ar              0.4630419              2.1089452             -1.7429256
Ar              1.9652086             -2.7616733              2.1856228
Ar             -3.0015934              2.4382669              3.4779025
Ar             -2.6762363              1.7814000             -3.9242173
Ar             -2.7506833              2.5319932             -0.1495111
Ar              2.8655399              0.1472869              4.1979796
Ar             -1.5539826             -3.0792012              1.2799813
Ar             -1.5576926             -4.1102891             -2.5105275
Ar             -0.0977374              4.0746619              1.8653735
Ar              3.9187876              2.4965431             -2.9689322
Ar              3.1781885             -0.7407905             -4.6544343
Ar             -4.7208818             -3.7808125              3.0358445
Ar             -4.1985983             -0.3981323              1.5766272
Ar              0.1584907              2.3588213              5.2287025
Ar              5.3649069             -0.6950893             -1.6832685
Ar              5.4645129             -1.4466080              1.9729263
Ar              0.8078129              2.1883195             -5.4248224
Ar              4.2368767             -4.0376152             -0.5750778
Ar              0.8537072             -5.5269451             -0.1546645
Ar              2.7284309              4.8853624             -0.3022887
Ar             -3.5956305              5.7056547              1.4660870
Ar              3.2493636              3.8111845              3.4000837
Ar             -4.1342179             -1.8727906             -4.2578491
Ar              1.9970930             -4.2224661             -3.6742293
Ar             -0.4345974             -1.2499430             -4.6171081
Ar             -6.0636444              0.7233998              4.5892210
Ar             -4.7844063             -5.6947732             -3.4306275
Ar             -1.8145730              5.6738006              4.8355911
Ar             -6.1322442              2.8570956              1.2904385
Ar             -1.0511377              5.5714534             -1.3886671
Ar             -3.0948973             -6.2654740              0.1551488
Ar             -4.8740520             -3.0908987             -0.7714905
Ar             -5.5548941              0.6557649             -1.7727230
Ar             -4.7224345              4.6302579             -2.3168486
Ar              1.7517606              5.4249600             -3.8545963
Ar             -5.6490889              4.7329532              4.5716219
Ar             -1.8135476              5.1668765             -5.0206397
