42
Energy:            -184.2171
Ar             -1.9706950             -0.4931953              0.3763530
Ar              0.0218533              2.2558050              1.5662675
Ar             -0.2250587             -0.7659463              3.7051322
Ar              0.6343814              1.0907365             -2.2827751
Ar              0.7949829             -2.5487303             -2.7877125
Ar             -2.4286246             -3.6165489             -1.3615827
Ar              0.5990185             -4.5237048              0.6417319
Ar             -2.3905025              2.7199605             -1.3692448
Ar              2.6264869              4.7038632              2.4966803
Ar             -2.6182752             -3.7219775              2.2900130
Ar             -2.5041546             -0.4180475             -3.4044663
Ar             -2.3548597              5.1731984              1.3249166
Ar             -0.3956306              3.8298283             -4.4901873
Ar             -2.0196947             -3.7251885             -5.0769959
Ar             -4.0113391             -0.7166467              3.8134043
Ar              3.4697565             -3.0288970              2.9177987
Ar              3.9784645             -0.4071069             -2.7111971
Ar              1.6658960             -1.0249320              0.4784986
Ar              3.2619715              0.7790840              3.3198957
Ar              3.2824620              2.1676136             -0.0897926
Ar              3.3283161              3.3504265             -3.5921719
Ar              3.9059507             -3.7107583             -0.8832897
Ar              0.8193093              4.7930919             -1.0101368
Ar             -5.5312927              4.6705250             -1.1185130
Ar             -5.3869895             -1.7442696              0.4002029
Ar              5.5459143             -0.6543602              0.7100582
Ar             -6.2036433             -3.8141539              3.4397543
Ar             -4.7448496              1.9334791              1.3264748
Ar             -2.3813182              6.2854285             -2.4103051
Ar             -0.1283009             -6.1934358             -2.7301015
Ar              4.6472200              5.4978123             -0.6922222
Ar             -2.5670068              2.6713650              4.2012564
Ar             -4.1352051              3.3930464             -4.5281497
Ar              6.5621321              2.2570207             -1.7092004
Ar              0.3417529             -4.4089480              4.4515918
Ar             -5.3116245             -5.4489451              0.0908120
Ar              5.8197227              6.7074548              2.7045591
Ar             -5.7044059              0.9437075             -2.1455767
Ar             -3.9626208             -6.4131892             -3.3055827
Ar              6.1168573              2.9900577              2.0504847
Ar              0.9261850              2.7704094              5.2946265
Ar             -5.4653035             -2.8160572             -3.2370103
