42
Energy:            -181.6619
Ar             -0.5244053             -1.4475724              0.2878271
Ar             -1.3369265              1.0803121              2.8585141
Ar             -0.3218959             -0.0046139             -3.1192671
Ar              3.0121664              1.6473626             -2.1185853
Ar              1.7323238              1.0649762              5.1527049
Ar              1.4690628             -2.4745494             -5.3409199
Ar             -0.1089547              2.2549517             -0.2810348
Ar             -3.2009645             -2.0938360              3.0574797
Ar              1.9557947              1.2531165             -5.7723438
Ar              2.4883396             -2.0079734             -1.7172997
Ar             -1.1800101              3.4762017              5.6434227
Ar              0.4410096             -1.9876419              3.7261926
Ar             -3.1488551              2.0404674             -4.3394455
Ar              2.5298964              0.2365850              1.5092523
Ar             -1.7877755             -0.3240229              6.2449707
Ar              0.1960679              3.7798492             -3.5837562
Ar             -0.7370426             -3.6784014             -2.5847623
Ar              1.5005184              3.7306571              2.6609937
Ar              0.3777293              5.9182873             -0.2920587
Ar              2.8900940             -3.5837798              1.5400654
Ar              0.8508464             -6.2294140             -4.7666429
Ar             -1.6135409             -4.1923944              5.7963286
Ar             -0.7606816             -4.8563800              1.6793163
Ar             -0.9130096              3.3150779             -7.1486281
Ar             -1.3922697             -0.3708103             -6.6602575
Ar             -3.7192805             -3.2556401             -0.4022051
Ar             -2.1905011              4.5679059              2.1445869
Ar              2.3125087              4.5511909              6.3563700
Ar              1.3683995             -2.0749494              7.3111226
Ar             -2.9483930              4.3510445             -1.4586117
Ar              0.0724952              6.8114831              4.1429286
Ar              4.1461046             -4.6270263             -3.7605543
Ar             -3.3974891              0.6025459             -0.7184949
Ar             -1.8613630             -4.0401630             -6.2020894
Ar             -2.6971038              5.8038756             -4.9141742
Ar              4.7739531             -0.8687966             -4.4182198
Ar             -3.6197904             -1.6666852             -3.8139801
Ar              0.5107328              1.6514323              8.5628413
Ar             -3.8231332             -5.5707946             -3.3858612
Ar              1.9613106             -5.1201567              4.8594532
Ar              4.0663607             -1.7956458              4.5912404
Ar              1.7549331             -5.8970847             -1.0833635
