42
Energy:            -189.9533
Ar             -0.5444366              1.9974666             -0.1427178
Ar             -1.2354210             -4.3980693             -1.4612925
Ar              1.4034802             -4.0222023              1.0384932
Ar              1.5658146              4.9388055             -1.0078085
Ar             -1.6837434              4.1090552             -3.0422691
Ar              1.4588146              3.2985531              2.5370228
Ar             -2.1106045             -1.3514686              0.7839694
Ar              0.5976301             -1.1263034             -1.7405205
Ar             -2.8095390              0.5426726             -2.4294681
Ar             -1.8470558              5.3435725              0.5214344
Ar              2.6155350             -3.9474376             -2.7230664
Ar             -3.9786344              2.0464892              0.9730055
Ar              3.0046877              1.5922224             -0.5054840
Ar              1.1968720              1.9403242             -3.6349640
Ar              4.6938052              0.9524918              2.7078256
Ar             -3.5622751             -2.0055842              4.2764858
Ar              1.3471367             -0.4852493              1.8272719
Ar             -1.6517831              1.0833478             -5.8722231
Ar             -1.4294929              1.0810897              3.4708006
Ar              4.5732836              3.6771338             -3.0368226
Ar             -4.5915316             -2.6358368             -1.7032146
Ar             -5.8405676             -1.0943089              1.4893273
Ar              3.7542659             -2.5821416              3.7280233
Ar              4.7990819              4.3768188              1.0574304
Ar             -2.1875097             -4.7949692              2.1481113
Ar             -1.9120380             -2.4308522             -4.4536512
Ar              0.0224905             -2.6620966              4.4111383
Ar              0.0020091              3.4953929              6.0210350
Ar              1.5119384              5.4651016             -4.7243988
Ar              4.3056192             -1.8416488              0.0252815
Ar             -5.0566795              4.5818469             -1.4278826
Ar              1.4315608             -1.3328810             -5.4619677
Ar             -4.8057779              2.8524940             -4.7121336
Ar             -6.3840066              0.9044987             -1.7309040
Ar              4.2891628             -0.2935498             -3.3613100
Ar              1.9707944              0.4549869              5.3044765
Ar             -2.9739640              4.4123991              3.8955787
Ar             -5.0521190              1.3499598              4.5130898
Ar             -5.2208705             -0.8217656             -4.9891866
Ar              6.6158437              1.2752896             -0.6397983
Ar              3.9538312              3.7186443              5.1897036
Ar             -1.4993879             -0.0747499              6.9120527
