42
Energy:            -189.6373
Ar             -0.1866727             -1.8029202              1.1164651
Ar              3.6706993             -0.4897891             -1.3695818
Ar              0.8220597              0.5101571              4.0727936
Ar             -1.4189322              4.3437060              0.7640337
Ar             -3.1140776             -1.8925885             -3.4211875
Ar              1.9960806             -4.7316050              0.7566974
Ar              2.9358178             -0.7095544             -5.0505473
Ar              0.3137934             -0.9873394             -2.3540741
Ar             -2.2369129              1.3369535             -1.4016420
Ar              3.2496598             -1.3715881              2.0340354
Ar             -3.6310526             -1.7641909              0.2420520
Ar              1.0486334              1.5242076              0.4035516
Ar             -2.3035351              1.0445538              2.1873048
Ar              1.9238600              2.3073631             -3.1151857
Ar             -1.1681116              1.0013856             -5.0342090
Ar              0.9682446             -3.4686391              4.2047725
Ar             -4.7773079              3.7489699              2.4274148
Ar              3.7874912             -1.3894105              5.6900758
Ar              6.7544668             -1.4748533              3.1764774
Ar              5.5234132             -3.4637414             -0.0106666
Ar             -6.5841414             -1.8821174             -2.0567232
Ar             -5.6435537             -0.2391761              3.2234599
Ar              4.5704757              1.6669178              3.5489371
Ar              4.4997843              2.8342724             -0.0053274
Ar             -1.8574647             -5.0149974              1.7861350
Ar             -4.4722601              4.4260684             -1.4283903
Ar              6.2098122             -2.0743251             -3.4936316
Ar              2.7919067             -3.7906162             -2.7946112
Ar              5.6604417              1.7234883             -3.5136372
Ar             -5.4761060             -4.0179346              2.4638590
Ar             -4.9434065              1.3741365             -3.8674292
Ar              1.7868535              5.2381696             -0.8316020
Ar             -1.1409282              4.3960081             -3.1316188
Ar             -4.4909721             -5.0141890             -1.1916197
Ar             -2.5005251             -2.1039903              4.0645174
Ar             -0.8383032             -4.3737071             -1.7269611
Ar              1.8677438              4.1376516              2.8077182
Ar             -0.0634249             -3.0585374             -5.3407754
Ar             -1.4395064              3.7011075              4.5458519
Ar             -5.7658696              1.2238998             -0.1616181
Ar              7.0864568              0.0515657             -0.2457306
Ar              4.5499449             -4.5289631              3.5560526
