42
Energy:            -188.1731
Ar             -0.4777674             -0.7936586              0.7156436
Ar             -2.7553397             -4.9463607              1.5310127
Ar              2.3982498             -1.4090392              3.5980134
Ar              3.1404543             -1.6659365              0.0056628
Ar             -1.5952289              0.5254019             -2.6666652
Ar              2.5400904              1.5718524              1.4012468
Ar             -0.6361287              2.8395848              0.1952665
Ar              1.7916173              0.9050022             -2.0005119
Ar             -1.0651979             -2.5463502              3.9704519
Ar             -3.8818462              1.0882867             -0.0067777
Ar             -3.3423082              3.7432045             -2.7921946
Ar              0.8499346             -4.2716564              1.0146424
Ar             -0.2439331              1.2947266              3.7808225
Ar             -4.2315543             -1.6167534              2.3411881
Ar              4.6502941             -4.1706840              2.1402602
Ar             -3.7544034              4.8181571              0.6625293
Ar             -3.1045399             -2.4957789             -1.2791186
Ar              0.5044056             -2.6088877             -2.4957310
Ar              6.5971053             -2.4461184             -0.8032943
Ar             -2.3718531             -2.0612985             -5.0843267
Ar              0.8969237             -0.0377829             -5.4236125
Ar             -5.1322498              0.4447204             -3.5508673
Ar             -3.8798070              2.0764137              3.5017441
Ar              3.5948797             -4.8609119             -1.6556377
Ar              2.9521618              4.2753463             -1.2674857
Ar             -0.4819167              6.1974588             -1.0860063
Ar              5.7109149             -0.2228822              2.3189440
Ar              3.8807030              2.3456607             -4.5857447
Ar              3.4795573              2.1747056              4.8177493
Ar             -1.4278913              4.8645673              3.5117392
Ar              0.2306505              3.6086156             -3.8774375
Ar              5.5164471              3.6496283              1.7286504
Ar             -5.7226972             -3.2950874             -3.8707872
Ar              5.3623090              1.1938090             -1.1863969
Ar             -2.4536665              1.7621971             -5.9985439
Ar             -6.8136020              4.4900291              2.6770747
Ar             -6.6288232             -1.4450120             -0.7031553
Ar              4.0470301             -1.5173574             -3.6262646
Ar              1.9788889              5.0806480              2.2183128
Ar              1.7889433             -5.0006501              4.5594019
Ar             -6.7667021              3.0285716             -1.0321066
Ar             -7.1216062              0.8434933              2.1187599
