42
Energy:            -185.8729
Ar              0.8018062             -0.1459979              0.6422452
Ar             -2.5677317              0.2006916             -1.0915369
Ar              2.6193163              0.4923918             -2.5635244
Ar             -2.3369616              0.2883143              2.6790414
Ar              3.0010872              0.6000988              3.5741362
Ar              0.0310273             -2.2001943             -2.3270197
Ar             -3.3790938              3.2782331             -3.0285414
Ar              3.4430413              2.5314553              0.4196451
Ar              3.6418784             -3.1510642             -2.6030750
Ar              1.7805593             -3.6796005              0.6208376
Ar             -1.7871383             -2.7781529              0.8284545
Ar              2.3823353              2.1790824             -5.9009688
Ar              0.2258550              2.9862704              2.4199269
Ar              3.9851924             -3.0727483              3.5741716
Ar             -2.9431147              3.4354930              4.5453635
Ar              0.0198203              2.8694006             -1.2806385
Ar              0.3592137             -2.1023921              3.7851432
Ar              4.4361986             -1.0580797              0.4200956
Ar             -3.1091128              3.4251015              0.7444172
Ar             -3.5863122             -3.3346755             -2.3317512
Ar              0.3163318              4.9595716              5.6165115
Ar             -4.3613862             -0.1840664             -4.3413793
Ar             -0.8643856             -5.7394845             -1.1780320
Ar             -3.1768511             -3.3117878              4.1844685
Ar             -1.7466389             -2.6405934             -5.5626863
Ar              3.4449847              4.4333213              3.6199544
Ar             -1.4262704              6.3180093              2.4867922
Ar              1.7047055              5.8179145              0.4292293
Ar              3.0837076              4.3062298             -2.8265082
Ar             -3.5594176             -0.0661396              6.1696668
Ar              1.8820312             -1.6009137             -5.5895234
Ar              0.9501429             -5.1253557             -4.4214166
Ar             -1.5905033              6.2104988             -1.3558430
Ar             -4.0741280             -5.6174586              0.9479829
Ar             -0.2413488              4.6082590             -4.5761362
Ar              2.7784928             -6.6419791             -1.3885399
Ar             -0.7404512              0.8445225             -4.3233690
Ar             -0.6223364             -5.7552726              2.6475320
Ar              1.5450923             -5.1140631              5.6397812
Ar              2.8888289              5.9407530             -6.2320148
Ar              3.0614957             -6.6255831              2.4580125
Ar             -0.0578719              1.1573954              5.6382835
