42
Energy:            -179.8027
Ar             -0.5190028              0.0877014              1.1306569
Ar             -1.0717569              3.6291406              1.6837852
Ar             -0.7145309             -2.7018306             -1.2170361
Ar              2.6278910             -0.9583185             -2.5309592
Ar             -1.2726489              0.9438580              4.5730325
Ar             -0.5662599              0.8283658             -2.4057835
Ar              3.6191504              5.4232816             -2.0713629
Ar              2.9925638             -1.1208826              1.1871297
Ar              0.2169304             -3.3426361              2.3381212
Ar             -0.5528180             -6.3079500             -2.0908497
Ar              2.3188261              2.1275542             -0.4322323
Ar             -3.6571748              3.8086265              4.7886116
Ar             -0.0422207              4.5725618             -1.7995837
Ar              3.8090957             -4.4324735              2.7023424
Ar              2.0485697              2.0494871              3.2115959
Ar              2.4989992             -4.3317111             -0.7923108
Ar              0.9627862             -3.6788171             -4.3707086
Ar             -4.0689954              1.5045835              1.9364739
Ar             -3.7606766             -0.7082173             -1.0199598
Ar              2.1509062              5.3572216              1.3504995
Ar             -4.3359898              5.3440905              1.3552384
Ar              0.0184130              4.5761051              5.0743281
Ar              0.6973326             -0.2097321             -5.8447799
Ar             -2.3897179             -1.6752573             -4.4613470
Ar              0.8727044             -6.8405890              1.5330655
Ar             -2.5823994             -5.3025894              0.8155779
Ar              1.9931876             -1.2851499              4.8150757
Ar              2.8642122             -6.8523877             -3.5618874
Ar             -1.8003941             -6.0357065              4.2959391
Ar             -3.3600525              3.0225316             -1.4392027
Ar              1.5264015             -5.0003974              5.5404363
Ar              2.3274632              2.5784601             -4.1066315
Ar             -4.0094550             -4.2653995             -2.3764084
Ar              1.1715081              6.0521421             -5.0015794
Ar             -1.0274619              7.2317976              0.6284204
Ar              1.1909212              7.9499467              3.7960711
Ar              3.7149190              5.1329981              4.7392767
Ar             -3.2428473             -2.0624482              2.5116471
Ar             -1.4060390             -2.5991612              5.7344147
Ar             -2.4790426              7.2440866              4.0581251
Ar             -2.1552485             -5.3873851             -5.4302928
Ar             -1.3624081              3.1446278             -5.0940038
