42
Energy:            -188.1982
Ar             -1.1842629             -1.1913336             -0.9593769
Ar              0.8382501             -2.8492809              2.1209531
Ar             -0.2028246              3.0911430              0.3333671
Ar             -3.5469419             -4.0868684             -1.9804339
Ar             -1.4573137              1.7358877             -3.7404983
Ar              2.1384885              0.5058311              1.5209160
Ar             -1.7718746             -0.1272830              2.3806335
Ar              1.6610750              1.0443553             -2.1022556
Ar              2.4323038             -2.2121014             -1.0223539
Ar             -3.4485450              1.8213146             -0.6211196
Ar             -0.0650201             -4.8514072             -1.0652387
Ar             -4.1464305             -0.7193295             -3.3341244
Ar             -2.8853697              0.5702624              5.9523294
Ar              2.5136417              3.4705620              3.5801200
Ar              1.1395854              4.4859581             -3.1758237
Ar              1.6420805              1.4075118             -5.7949862
Ar             -3.2248547              5.0208614              1.5148361
Ar             -4.8992709              1.7934734              2.7717213
Ar              2.8771766             -4.7948030             -3.5379754
Ar              4.4167458              0.2221764              4.9712737
Ar             -1.3390158             -2.8445745              5.1196337
Ar             -7.1208725             -2.7839057             -2.2359429
Ar             -5.0172645              2.8972414             -3.9534691
Ar             -4.7972327             -1.3812549              0.3631870
Ar              3.4204083              3.7031391             -0.1926182
Ar              5.1271683              0.2962196             -0.9063011
Ar             -1.2039990              3.1948786              3.9491365
Ar              0.7798398              0.2131971              4.9891019
Ar              3.3141160             -5.3954064              0.5777395
Ar              0.3053575             -1.8805316             -4.1939900
Ar              5.7956256              2.1131945              2.1936788
Ar             -4.8224033             -1.9054336              3.9917348
Ar             -2.4500174              5.0479184             -2.1564100
Ar              4.6661277             -2.1319601              2.0154104
Ar              4.5279239              2.7216074             -3.7444842
Ar              5.8701860             -3.3698351             -1.5173932
Ar              4.0312011             -1.1185896             -4.1967217
Ar             -2.5828315             -3.9605999              1.6755652
Ar              2.6547061             -3.0864469              5.2759260
Ar             -6.1043932              4.4908689             -0.7158980
Ar              7.0972254              3.5162582             -1.0824773
Ar             -7.0504727              0.9406758             -1.4152535
