42
Energy:            -194.8099
Ar             -0.7097089             -0.6601090              1.1899503
Ar             -1.8150730             -2.6674506              4.0191767
Ar              2.8676136             -0.2172728              0.7832748
Ar              0.6707453              2.6134019              1.8032484
Ar              0.5083420              1.2829864             -1.6737279
Ar              1.7402221              3.2864921             -4.6058563
Ar             -4.3178620             -1.0242170              1.4656897
Ar             -2.4809675             -0.9255521             -1.9391667
Ar              0.9104794             -2.4149279             -1.5403601
Ar             -2.0589560             -3.9423421              0.4000258
Ar              1.1952922             -0.2879742              4.2639603
Ar             -0.3629835             -5.7578420             -2.4357378
Ar             -6.3159354              1.9518531              0.2956488
Ar              1.9225041              4.6652170             -1.0674634
Ar              4.5950683             -2.0223720             -1.9891654
Ar              0.1983389             -6.8358590              1.1919661
Ar              6.5695111              0.2203897              0.3889112
Ar             -1.2896445              5.6119301              0.7530618
Ar              0.4726276             -5.5818658              4.8469365
Ar             -4.3517668             -1.2149206             -5.1763955
Ar              2.6728291              3.1098881              4.8754183
Ar             -0.8784448              4.6693222              4.4499308
Ar              2.5836455             -4.2559027             -4.3444395
Ar             -6.1563594             -1.2563071             -1.8168512
Ar             -4.5282885              1.9754603             -3.0930705
Ar              4.3551683              3.1325149              1.4421679
Ar              5.1175851             -3.0552947              1.6496812
Ar              3.1115196             -5.3083509             -0.7331549
Ar             -2.3077642              1.2325394              3.8530566
Ar              2.1691832             -0.4862825             -4.4895151
Ar              1.4239286             -3.4296944              2.0119956
Ar             -0.8878461             -2.7551292             -4.7834567
Ar             -1.3093693              1.0359848             -4.9053987
Ar             -4.6590679              5.1460650             -0.9744755
Ar              4.9120759              0.1655383              3.8285077
Ar              4.1686007              1.7588122             -2.1156989
Ar             -4.2807727              4.2361330              2.7123971
Ar             -3.8612147             -4.2266471             -2.8819347
Ar             -1.4629712              4.2251717             -2.7959657
Ar             -2.6334063              2.1861480              0.1181273
Ar              2.0903465              6.0194365              2.4729063
Ar              3.4791855             -3.1509644              5.0897416
