42
Energy:            -186.8099
Ar             -0.1691821              0.1195710              1.6371395
Ar             -3.1927823             -1.5855798             -0.4449530
Ar              3.2151760             -1.3436455              0.8924392
Ar             -2.2668261             -3.1874359              2.6727961
Ar              0.3346740              3.7064843              0.5333132
Ar             -2.6001330              1.9240787             -0.6921138
Ar              1.3015730             -3.4345785              3.1405357
Ar              6.4728179              3.7844129              0.8406396
Ar             -5.6171109              4.0471349              0.0434769
Ar             -3.8657787             -5.2552445             -0.0513001
Ar             -0.8264972             -0.7011874              5.1402215
Ar             -0.3315989             -5.9701699              0.8934165
Ar              0.2076586             -2.6908688             -0.6705708
Ar              6.3322782              0.0616740              2.3701779
Ar             -0.2381147              3.6807106             -3.1102033
Ar             -2.7721049              3.8312976              2.5560099
Ar              3.3186287              2.1392436              1.7313697
Ar             -6.2342788             -3.0093025             -1.9620641
Ar             -2.4779826             -3.8366001             -3.2537249
Ar              3.2111964              5.8195974              1.8216886
Ar              5.0718234             -3.4578027              3.2473451
Ar              6.3760482             -2.7740044             -0.3202897
Ar             -1.7439853             -7.4453894             -2.2736289
Ar              1.1196161             -5.1956314             -3.1699314
Ar             -4.7281548              0.1031069             -3.4420631
Ar              3.4818945              4.0902069             -1.5606394
Ar              3.2044116             -4.9200892              0.0740535
Ar              1.6386636              0.9013232             -1.4736686
Ar              2.8857481             -0.3082927              4.4401945
Ar             -2.4400910              5.7932081             -0.7231615
Ar             -1.0994963             -0.3467943             -3.4137999
Ar             -6.2681591              0.4098953             -0.0528576
Ar              5.3765947              0.7984509             -1.2545549
Ar             -3.7275496              0.2827212              2.7342656
Ar             -4.0286579              3.8181846             -3.5253854
Ar              1.0805024              6.9351489             -1.1730363
Ar              3.3720671             -2.1980642             -2.7060090
Ar              0.5287774              2.8300020              4.1445312
Ar             -0.4062967              6.7613774              2.4419317
Ar             -7.5411243              2.5552141             -2.8728232
Ar             -5.9266850             -2.7602592              1.8938899
Ar              1.8425816             -8.2736821             -1.1256033
