42
Energy:            -189.5122
Ar              0.9734220              1.6875138             -1.2654447
Ar             -2.8108945              1.6800691             -0.8555462
Ar             -0.7843566             -0.4306421              1.2255861
Ar              3.3905880              3.3319849              0.9744003
Ar              2.1355609             -1.8417124             -0.6564496
Ar             -0.1767744              4.5978273              0.6707332
Ar              0.8178145             -3.0550671              3.0928293
Ar             -0.8461513             -1.2060746             -2.4673452
Ar             -2.8288423              3.1241467              2.6920024
Ar              2.4486239              5.6113590             -1.7721512
Ar             -2.6970561             -4.3213871             -3.3483279
Ar              4.3299431             -3.7410943              3.6768100
Ar              3.1628478             -0.1329536              2.2393521
Ar              0.6551396              2.2031912              3.4315680
Ar             -1.0016060              1.3918090             -4.9769924
Ar              4.1836293              2.6499516              4.5809647
Ar              2.2671246             -0.7067121             -4.2790304
Ar             -0.7038397             -4.1853445             -0.1058551
Ar             -3.6739619             -1.9931118             -0.5637719
Ar             -4.4513880              3.0039823             -3.7923270
Ar              4.5641146              0.7687810             -1.5966034
Ar             -0.9324794              4.4349498             -2.9805825
Ar             -3.6382666              5.3240902             -0.5978868
Ar              2.0344002              5.6938121              3.5464512
Ar             -0.8501366             -2.2766049             -5.9802529
Ar              4.7763546             -3.1546183             -2.8585220
Ar             -6.1404792              3.0714900              0.9118382
Ar             -4.5812141             -0.0285296              2.3243115
Ar             -4.2850674             -5.5850537             -0.0935894
Ar              3.0477082             -5.1604831              0.3553469
Ar             -2.9680690             -3.3727108              2.7877946
Ar             -6.7580478             -2.8860893              1.1698346
Ar             -6.3525709             -3.4351932             -2.6273972
Ar             -6.3857596              0.2584821             -1.4418110
Ar              2.1531100             -0.5841741              5.6951453
Ar              5.9762833             -0.6210438              4.7056369
Ar             -4.0374872             -0.7790848             -4.1725865
Ar              6.5241970              1.4302118              1.6145188
Ar              1.1697058             -4.2668869             -3.3421502
Ar             -1.6305792             -0.4248339              4.7930850
Ar              2.4390228              2.9861923             -4.3995410
Ar              5.7444306             -2.1733077              0.6092594
