42
Energy:            -193.7094
Ar             -1.3496967             -0.5286582             -0.6183254
Ar              1.0830177             -2.3664855              1.3275262
Ar             -1.0893149              0.2366445              2.9043208
Ar              1.6356758              1.2454258              0.5844848
Ar              4.6869060              3.0811752              1.8103584
Ar             -3.7025312              1.4600055             -2.5539965
Ar              0.1276858              2.0014691             -2.7324579
Ar              1.8352418             -1.2684953             -2.1645383
Ar             -1.4283787             -1.1674004             -4.1960084
Ar             -2.6891857             -3.0163680              1.6636064
Ar              1.9192931             -1.9237583             -5.7953916
Ar             -2.1449067              4.1089648             -4.7388687
Ar              1.9225401              2.0587676              4.2049749
Ar              4.3942822             -3.1636141             -0.2059604
Ar             -0.6116565             -4.6844957             -5.2286793
Ar              3.6090959             -4.2612472              3.3672288
Ar             -1.4675760              3.7725944              4.0309936
Ar             -2.4362607             -2.2330644              5.2945748
Ar              1.6300340              4.6300080             -4.9546189
Ar             -0.8451484              0.9808855              6.5772244
Ar             -4.1753160              1.1647495              4.7195420
Ar              5.1398344             -2.0382467             -3.7724804
Ar             -2.0716833              6.5056449              1.4393791
Ar             -0.2262067              5.5929552             -1.7697960
Ar              1.4029515             -1.6082556              4.9469349
Ar              1.7994177             -5.8821714              0.4492642
Ar              2.5603095             -4.7621241             -3.1449161
Ar             -4.4711385              0.3267444              1.0503976
Ar              4.9199628              0.5219762             -0.9893180
Ar             -0.7661445             -3.9816641             -1.5645630
Ar              3.4016277              1.3009427             -4.3847669
Ar              3.1630654              3.8620818             -1.5749000
Ar             -4.0102189              5.0701115             -1.5161230
Ar             -0.1287945             -4.8652572              3.7728576
Ar             -4.2507112             -2.3673665             -1.8222574
Ar              4.1636224             -0.5951615              2.5794930
Ar             -4.7923077              3.9260938              2.1256447
Ar              0.1499805              1.4303397             -6.3945051
Ar              1.3071716              4.8013045              1.6266546
Ar             -1.6868096              2.9207467              0.3937958
Ar             -0.1314298             -2.4204508              8.2513705
Ar             -1.8882447             -6.5888086              0.8806958
