42
Energy:            -188.8641
Ar              1.1655596             -2.2847528              0.8611725
Ar             -2.3119793             -0.8927984              1.0736617
Ar              4.2622146             -0.5370318             -0.2089074
Ar             -0.7614170             -3.0270053             -2.1230321
Ar              0.9992086              1.2374114              1.0579036
Ar              3.5723680             -0.6820461              3.3496587
Ar             -0.1179119             -0.8584618              4.0763232
Ar             -2.1638396              2.8314393              0.5110501
Ar              1.4612003             -0.0362284             -2.3314007
Ar             -5.2601090              0.8915680             -0.3268262
Ar              2.9346367             -3.5791864             -2.1795965
Ar              6.6024062              1.5295790             -2.1620690
Ar              6.7079614             -2.8558460             -1.6361603
Ar             -0.4917695              2.8366220              4.0035403
Ar             -2.8305773             -5.6488636             -0.5710614
Ar             -4.0918470              1.8585793              3.3785526
Ar              0.7782979              5.0331584              1.2090671
Ar              1.2219847             -2.2108084             -5.3004977
Ar             -2.5157959             -1.7586554             -5.2280340
Ar             -2.0897998              0.4663918             -2.2909038
Ar             -4.4141656             -2.4155366             -1.9565068
Ar             -0.2260946              1.3528642             -5.3690431
Ar             -5.4442958              4.5126481              0.6185505
Ar              6.3164959              1.9302350              1.6663393
Ar              3.2133267              3.0954376              3.3483442
Ar              0.9423461             -5.8411133              0.2070183
Ar              7.0819488             -1.6937410              2.0112072
Ar              0.1663751              3.5059267             -2.2310233
Ar             -2.3144387              0.9576360              6.6487543
Ar             -3.7863359              3.6780833             -2.7682788
Ar             -5.0911447             -3.4718874              1.5008405
Ar             -1.5325363             -4.1752696              2.6252975
Ar              4.3705984             -4.1019770              1.2043359
Ar             -2.7105769              5.5985936              2.9629883
Ar             -2.1664444              6.3407541             -0.7321520
Ar             -5.3493016              0.5343944             -4.1338485
Ar             -6.9235359             -0.4658032              2.7452486
Ar              1.9291479             -4.0844114              4.0328075
Ar             -3.7530078             -1.7283079              4.4868381
Ar              3.2868338              2.5633116             -4.2586869
Ar              4.6159912             -0.9294381             -4.1434133
Ar              3.5827642              3.1837619             -0.5919776
