42
Energy:            -194.1111
Ar             -0.1417486             -0.4597501              1.7123406
Ar              0.0015839             -1.5887195              5.1699624
Ar              1.0194608             -2.7277793             -0.8528925
Ar              3.0119653              0.2903852              0.0915777
Ar             -0.1736443              0.6877461             -1.7735043
Ar             -1.3581532              1.9291812              4.1610450
Ar             -2.8365803              1.6810885              0.6315867
Ar             -2.5948643             -1.8552888             -0.5344026
Ar             -3.3917990             -1.1676653              3.1910193
Ar              2.6667999             -2.5808663              2.5526012
Ar             -5.9512808             -2.5904548              0.8185921
Ar             -4.1258564              4.1979794              3.0193593
Ar             -1.4749606             -4.2254804             -3.1938223
Ar              3.7733364             -1.5966296              5.9740390
Ar              3.9005399             -4.9358630             -0.1026787
Ar              1.4242140              6.6093692              0.3464116
Ar              3.0529239              1.4636126             -3.4584467
Ar             -2.9438038              2.8900230             -2.9108701
Ar             -5.6558733              3.9024197             -0.4616318
Ar              5.9359582             -1.8318648              0.9321972
Ar              5.6863241              1.8435728              2.1417348
Ar             -5.1629086             -3.3228003             -2.8425841
Ar              3.8835797              3.8464674             -0.5979055
Ar             -2.1242027              5.2812303             -0.0578207
Ar              4.2853248             -2.0256679             -2.5336740
Ar              0.2504356             -6.3159725             -0.4905706
Ar             -3.4678197             -5.4322445             -0.1564634
Ar              1.9591559             -6.2230127              2.9005383
Ar              2.4187651              1.0758572              3.7564081
Ar             -0.2165077              1.8627120             -5.3460539
Ar             -0.9576154             -3.9613579              2.2190652
Ar             -5.4362850              0.2899398             -1.6592618
Ar             -0.5592208              5.5558985              3.4264332
Ar              1.0090457             -1.6169008             -4.4330530
Ar              2.2242510             -5.0867469             -3.5103090
Ar              1.2870650              3.6808426              6.1676587
Ar             -2.6963482             -0.7324127             -4.1050620
Ar              3.2443086              4.6766247              3.0662650
Ar             -6.2017548              1.0544914              2.0178958
Ar              0.6276044              3.0084126              1.0386312
Ar              6.3009585              1.0525391             -1.5378538
Ar              0.6086529              4.2433341             -2.5008647
