42
Energy:            -189.8527
Ar              0.1470059              0.3966354             -0.9760755
Ar             -1.1944565             -2.6187995             -2.6568506
Ar              1.5109399              2.2551390              1.9540839
Ar              3.5885899              0.5646415             -2.3567332
Ar              2.7553325             -1.1460755              0.9476448
Ar             -2.8407092             -1.5148341              0.2617686
Ar              0.8938982              2.8809851             -3.7484926
Ar             -0.3644304             -0.8587461              2.6567867
Ar             -2.5262243              1.8774655              1.5627809
Ar              2.4922483             -3.0035410             -2.3580354
Ar              0.3006817             -4.1723311             -5.6560671
Ar             -2.3939520             -4.0227304              3.0947571
Ar             -0.8905711              4.8823173              3.1036494
Ar              5.4057135              2.0041393              4.6372317
Ar             -5.8682464             -3.1686381              1.3581556
Ar             -2.3817678              4.6715478             -3.8705049
Ar              3.0807149              3.9832901             -0.9774075
Ar             -3.9770630             -0.7064552              3.7823730
Ar              5.9698863             -1.8677977             -0.6674037
Ar             -0.6568882              4.0442283             -0.6094312
Ar              2.3381159             -0.0069338              4.9005317
Ar             -0.9164513             -2.0044708              6.0583446
Ar             -1.1432524              1.7103378              5.1071335
Ar              0.8715404             -0.5807480             -4.8161662
Ar              0.1220078             -6.1015087             -2.4036426
Ar             -3.1442529             -5.2644857             -4.3481313
Ar              5.2098872              1.5423579              0.9523840
Ar              3.8969099             -4.6670295              0.8214501
Ar             -4.4434774              3.9394334             -0.8432767
Ar             -4.9872583             -2.3580952             -2.5764708
Ar              0.2265149             -3.7961389              0.5061689
Ar              4.1968569              4.8601312              2.4969321
Ar             -5.8150441              0.5176664              0.0225531
Ar              1.8942467             -3.5593212              3.8457302
Ar              5.4296358             -1.6740976              3.3058178
Ar             -2.9689319              0.9364364             -2.7178052
Ar             -2.8404505             -1.7004313             -5.7461072
Ar             -1.7154856              1.8165893             -6.2129983
Ar             -3.1441931             -5.1186457             -0.5552723
Ar              0.9001547              6.5402686             -2.8983961
Ar              1.4181697              6.7891147              0.8817152
Ar              2.0228882              3.7476281              5.3432952
