42
Energy:            -193.1646
Ar              0.5506734             -0.6019365              1.8479060
Ar              0.0099973              2.2233375              4.0393499
Ar             -2.3093884              1.5074555              1.1548404
Ar             -2.4124853             -2.1666234              0.5033465
Ar             -0.3375685              0.0461045             -1.6571374
Ar             -1.2857071              0.7013645             -5.2427526
Ar              3.4443358             -2.7411808              2.3812342
Ar              3.2058626             -0.2528813             -0.5830635
Ar              1.1690399              2.6900326              0.4716343
Ar              3.5845237              1.0408468              2.9772380
Ar              1.4024649             -1.1214856              5.3498531
Ar              4.2020605              4.4677246              1.6091640
Ar              6.1931594             -2.3803481             -0.1803504
Ar             -3.3570129             -1.5737114             -3.0559290
Ar             -1.7266062              4.9340112             -0.2307978
Ar             -2.2696913             -0.9398943              4.1182705
Ar             -5.2873113              3.6782874              0.4103554
Ar              1.4619942             -6.0349534             -3.0327518
Ar             -3.2334947             -5.5837861              1.6185286
Ar              5.9832988              0.0986157             -3.0810590
Ar             -5.3691465             -2.5207579              2.7099044
Ar             -2.0289993             -4.9514000             -1.9586646
Ar              1.8368233              6.1131599             -0.9010238
Ar             -5.3994183             -0.0602685             -0.1968209
Ar              3.7436923             -2.9807884             -3.0711036
Ar             -5.5065847             -3.7859350             -0.8898037
Ar             -2.9551333              4.4320982              3.3338266
Ar              0.6587813              5.6283581              2.6906536
Ar             -0.1459860             -3.9576988              3.0702231
Ar              0.2952534              3.4222309             -3.0946791
Ar              2.8501040              2.3057845              6.4265125
Ar              3.9303623              3.1273448             -1.9963672
Ar              2.3654739              0.4063510             -4.1762179
Ar              3.9165727             -5.4771422             -0.1684802
Ar             -5.2524690              1.2666027              3.3703398
Ar             -3.2393006              2.2155319             -2.3900748
Ar              0.2840254             -6.7109641              0.5342618
Ar              6.3283600              1.4601091              0.4585179
Ar              0.1089908             -2.6729196             -4.1555106
Ar              0.9910360             -3.2532676             -0.5587697
Ar             -6.3301265              0.6031129             -3.7815746
Ar             -2.9500215              2.0424580              6.2914617
