42
Energy:            -183.5682
Ar              0.8767207              0.9380750             -0.0212985
Ar             -1.0896071              1.2846009             -3.2825781
Ar             -2.9668140              0.1814464              2.9935920
Ar             -2.0511057             -1.2405224             -0.4174564
Ar              3.2616457             -1.8600000              0.4276115
Ar              3.1352291              1.0159197              3.0357490
Ar              2.9036127              2.3845768             -2.7603485
Ar             -2.7337234              2.2856251             -0.0589098
Ar             -0.3876110              3.3830402              2.5164966
Ar              0.3179328             -1.3919506              2.7334797
Ar              0.9802189             -1.6545406             -2.6474347
Ar              3.5751448             -2.6841636              4.0524072
Ar              3.3514558             -4.5739269             -2.1717436
Ar             -2.6729839             -3.5571083              2.3368912
Ar              2.9031633              3.9031954              0.7604755
Ar              0.0048837              4.2540984             -1.3765450
Ar             -4.3513031              3.6791714              2.9683103
Ar              0.3132498             -4.0433629              0.1084009
Ar             -2.6376812             -2.1877817             -3.8974334
Ar             -0.0736848             -5.0788807             -3.6279752
Ar             -3.2182524              4.4442895             -3.1424744
Ar              0.7697186              6.9164638              1.1607952
Ar              3.4690942             -5.5110194              1.4759292
Ar             -2.9446017             -4.9367283             -1.3152161
Ar              4.5848040              7.1382898              1.3976592
Ar              5.2771958              1.1654624             -0.0935893
Ar              0.5290886             -4.9948683              3.7546703
Ar             -2.7734220              5.9649788              0.4485588
Ar              2.8770887              6.4478620             -2.0377218
Ar             -5.5354575             -2.4318065             -0.6800226
Ar             -5.5022748             -5.7115775              1.3353065
Ar              6.0464979              4.6908248             -1.0873546
Ar             -6.0264247              0.8431989              0.9777551
Ar              4.5976619             -1.0845723             -3.0211512
Ar              6.0471869              3.6813295              2.6506034
Ar             -4.7846150              0.7523337             -2.6417606
Ar             -5.9377993              4.1753277             -0.6067117
Ar             -1.7010262             -7.0537001              1.4853403
Ar              6.5835991              2.0219094             -3.6315787
Ar              1.1804523             -7.4736177             -0.9355270
Ar             -0.8349240              7.6935776             -2.3153780
Ar             -6.0362051             -2.2460191              3.0808256
