42
Energy:            -190.4070
Ar              0.1055515              0.8870054              2.1178168
Ar              1.7813289              0.3610530              5.3098541
Ar              2.1558455              0.4751431             -0.8599260
Ar             -1.4673361              1.2675547             -1.1313765
Ar             -0.3761228             -2.1052771              0.0737448
Ar             -3.2809013             -0.3500338              1.7445969
Ar             -0.6410109             -2.2217566              3.7769747
Ar              2.6780793             -1.6571827              2.1539008
Ar             -3.8251521             -3.4500925             -0.2783158
Ar              0.6467972              3.9102003              4.0774423
Ar              0.8247252              3.8622459              0.2124509
Ar              4.4526754             -2.3076813              5.3304751
Ar             -2.0603752             -1.7859896             -3.2166317
Ar              4.2942051              0.0176275             -3.9231032
Ar             -4.0450586             -3.6488278              3.4934924
Ar              4.8381457             -2.1238124             -0.8524590
Ar             -5.3936061             -0.4773008              4.9202005
Ar             -1.1394500             -5.3373816              1.7475860
Ar             -6.7182356             -1.6790701              1.5278510
Ar             -0.8990523             -5.1923705             -2.0179176
Ar              1.7097262             -2.6100387             -2.9657710
Ar             -1.3740990             -5.4789486              5.5215296
Ar             -6.1114365              2.0666045              2.3020076
Ar              5.3632559             -4.2936893              2.2153584
Ar             -2.5710084              3.3505985              2.0405833
Ar             -4.0942136              5.3178110             -3.8892331
Ar              5.6700342              1.6247234             -0.7392562
Ar             -0.5795069              4.1176129             -3.3821699
Ar              6.2190181             -0.5748116              2.3500287
Ar             -2.6720293             -2.1836718              6.8630652
Ar             -3.2239346              1.6243673             -4.3866016
Ar              2.2458896             -4.7609619              0.0976659
Ar              1.5040798              6.8476464             -1.8360646
Ar              3.5457608              2.0646235              2.3411143
Ar              1.9952531             -4.8905008              3.8762548
Ar             -1.9937282              1.1155759              5.0934103
Ar              4.3328743              5.0903112              0.2290166
Ar              1.0769130             -2.9350499              6.9972267
Ar             -4.7081946              2.9065627             -1.0619858
Ar              3.0348638              3.4371696             -2.8867824
Ar             -2.2237464              5.9077218             -0.6175520
Ar              0.5768026              0.7219117             -4.2528667
