42
Energy:            -185.1097
Ar             -1.3055690             -1.0347035              0.9993846
Ar             -0.7373866              0.9130634              4.4276813
Ar             -0.7607087             -1.1489899             -2.8449970
Ar              2.4092619              0.2972001             -1.5683604
Ar              1.7798499             -1.5317699              2.7802104
Ar              1.3474115             -3.0674077             -0.6393344
Ar             -2.5835066              2.4489606              1.6062723
Ar             -1.5579623             -2.6022015              4.5917132
Ar              1.1524081              1.8976983              1.4771833
Ar             -0.8768442              2.0722356             -1.4828972
Ar             -0.4304699             -4.8598759              1.9707217
Ar              4.5961300              1.0130985              2.6910221
Ar              2.5624730             -1.4582453             -4.7827369
Ar             -3.9839375             -2.2482977             -4.1799038
Ar              4.7372194             -1.8462643              0.3922966
Ar             -0.9456019             -1.3037192             -6.4605664
Ar              4.3068497              2.1530488             -4.3772267
Ar             -3.0343959              1.4617149             -4.4218918
Ar             -4.2906400             -0.2118373              3.3201955
Ar             -2.2407033             -4.0886442             -1.3022747
Ar             -3.3005606             -0.1486054              6.9495759
Ar             -0.3976649              4.6425148              3.7104263
Ar              2.4460362              2.7284404              5.0822490
Ar              0.3955156             -4.4288917             -4.0644356
Ar             -3.6869966              3.1956913              5.0609134
Ar              0.6745616              1.7733332             -4.7934390
Ar              3.3153188              4.7516532              1.7780496
Ar             -0.5847125              5.3620427              0.1088269
Ar              4.1494392             -4.2002438             -2.6476072
Ar             -3.7402125              5.8793363              2.1499234
Ar              2.2478115              4.0035669             -1.8454603
Ar              1.7493962             -4.3959532              5.1287785
Ar             -4.0805494              0.0553828             -1.0611204
Ar             -1.0189577              4.9768525             -3.7025350
Ar             -3.9881316              4.0290377             -1.4351037
Ar              3.3650114             -5.0247617              1.7631108
Ar              5.3800603              2.2605417             -0.6852582
Ar             -5.1644357             -3.1716533              5.4928628
Ar              5.0600882             -2.5457043              4.1373547
Ar             -4.5375896              4.8500077             -5.0892466
Ar             -4.0264578             -3.5750200              1.8656444
Ar              5.8634478             -0.8560016             -2.9599555
