42
Energy:            -187.1845
Ar             -0.9556945             -0.4400018             -0.1369302
Ar             -2.6779387              2.6359052              1.8686435
Ar              2.7822371              0.7112756             -0.4596795
Ar             -3.9503975             -2.7097799             -0.8960057
Ar              2.2559789             -3.6562609             -0.6793540
Ar              0.8461161              1.9414204              2.4782459
Ar             -0.1645956              2.2411175             -2.5003971
Ar              1.7197349             -1.5975674              2.2300506
Ar             -1.5466703             -0.5802482              3.4699788
Ar              1.1159070             -1.2138865             -3.1332457
Ar             -4.8648735             -0.5470003              1.9066535
Ar             -0.9309884             -4.1871843             -2.4124126
Ar             -2.9606923              6.4532552              1.6428386
Ar              3.4193697              4.5189582              2.0342417
Ar              5.1792757             -2.0642862              0.9760732
Ar              2.5134446             -5.2307140              2.6364385
Ar              3.2723752              1.5603227             -4.2129060
Ar              0.0091910              0.8380529             -6.0506400
Ar             -3.7194365             -3.3513352              4.3061300
Ar             -0.0903333              5.3427042              3.8376128
Ar             -3.0604203              4.7013721             -1.6635465
Ar             -3.9830248             -4.0944201             -4.5657693
Ar              2.4501086             -4.5749854             -4.2560485
Ar             -2.4180007             -0.8338473             -3.7134243
Ar              4.3421417              0.9419511              3.0664105
Ar              1.5527880             -0.2307333              5.6352385
Ar              3.1767880              4.2451034             -1.7065469
Ar              0.0877052              4.7344230              0.2202339
Ar             -4.4695318              0.9467109              5.2460680
Ar             -1.1114881             -3.8366657              1.4064752
Ar              2.6357597              3.3270734              5.5256208
Ar             -3.1416511              2.6355709             -4.7923822
Ar              4.7345537             -1.6980782             -2.8066447
Ar             -1.0565474              2.3368308              5.7436861
Ar              4.2947490             -2.5843670              4.6926861
Ar             -1.8915601             -1.1701486              7.0933796
Ar              0.1083702             -3.6099600              4.9941744
Ar             -4.1371063              1.2133967             -1.2734541
Ar             -3.7978389              4.6765033              4.8338010
Ar              3.0228991             -1.5139392             -6.3451656
Ar              5.0396313              0.5856250              6.7374675
Ar             -0.5048979             -3.0082941             -6.0372370
