42
Energy:            -183.7308
Ar             -0.8048222              0.3138512              0.4711856
Ar              0.0457551             -2.5352917              2.7412850
Ar             -1.3788563              1.7499146             -2.8246489
Ar              2.1932792              0.2832330              3.2115286
Ar              2.4026399              1.9553839             -0.1911212
Ar              1.1395258             -0.9024976             -2.4117930
Ar             -0.1312670             -3.8631044             -0.5970544
Ar              0.3777511             -5.1372296              5.3684038
Ar             -3.9121155              4.2816451             -2.1195926
Ar              0.2374181              3.1894285              2.7480866
Ar             -0.4870938              4.4154863             -0.5433792
Ar              1.8284873              2.1085427             -4.4926505
Ar              0.8044890              2.1924816              6.2660801
Ar              3.1317340             -4.1090879             -2.5595647
Ar              2.3533235              5.8686927              1.4557641
Ar              2.7882879              5.0432194             -2.2693270
Ar             -1.8875703             -5.6294868              2.3008574
Ar              3.0228116             -2.0484996              0.5507035
Ar             -1.8292716              0.4172684              3.9554396
Ar             -3.5696412             -5.1589391             -1.1285417
Ar             -2.3179775              0.2267714              7.5915236
Ar             -0.1798562             -4.0765321             -4.3092323
Ar              1.3052975              1.0255716             -8.0435361
Ar             -2.5308747             -1.7911989             -2.4244821
Ar             -3.2581019              3.1591929              1.6591447
Ar             -4.4307457              0.7755389             -4.5865729
Ar              3.4845059             -3.0533332              4.2689553
Ar              2.6782254             -1.6838747             -5.6489802
Ar              2.0240589             -5.5816215              1.8734074
Ar             -4.5069743              0.7671376             -0.7752820
Ar              0.6831575             -1.4840254              6.1935322
Ar             -2.7993543             -2.9915222              5.0549519
Ar             -0.5227117              5.2559252             -4.1007787
Ar             -1.7580909              2.7643058             -6.4911430
Ar             -0.9474845             -0.6958570             -5.5950752
Ar              0.9957656              5.8562735              5.1995917
Ar             -1.5045507              6.4543234              2.4352747
Ar              3.7500961              3.4866118              4.1139165
Ar              4.0766639              0.2373151              6.3719926
Ar             -2.3907521              3.9068462              5.3037417
Ar             -3.3470209             -2.2236147              1.3086645
Ar             -1.4061717             -3.5166270              8.4876614
