42
Energy:            -186.0236
Ar             -0.4678793             -0.3680416              0.4043975
Ar              0.9359089              1.8421516              2.8609260
Ar             -1.0626846             -1.5874957             -3.0439195
Ar              2.4344785             -1.9032803             -1.2259337
Ar              0.9669408              1.2482108             -2.7059748
Ar             -2.6479314              2.5041571              1.9791848
Ar              2.3625509             -4.3754183              1.8170360
Ar             -2.6845189              1.4909144             -1.7552843
Ar             -3.4011920             -0.9345960              2.9325375
Ar              3.3633623              1.6491475              0.0042875
Ar              4.4209361              2.4686138              3.8554264
Ar             -3.3142207              5.0453258             -0.8951816
Ar             -3.1498416             -4.5561727             -3.3838831
Ar              1.6200535             -1.0799300             -5.5498871
Ar             -2.8319407              4.1745954              5.4240612
Ar              0.1805892             -5.5455953              4.7549375
Ar              2.6580766             -5.8399770             -1.5480305
Ar             -4.4832135             -0.8055455             -4.1574191
Ar              4.4402241              0.5154613             -3.5099338
Ar             -0.4998975             -4.0706800             -0.5390703
Ar             -1.4959992              1.1350420             -5.5312629
Ar             -4.4207519              3.2936509             -4.4248976
Ar             -2.4133432             -2.9666610              6.0004398
Ar              3.5298307             -0.9580166              2.4926733
Ar              3.0080102              5.0334090              1.5158289
Ar              1.0567895              3.7818400              5.9476391
Ar              4.2389291             -3.3657590             -4.0933278
Ar              2.9461644              4.3811541             -2.5251088
Ar             -2.5514025             -4.4912747              2.4310204
Ar             -1.4078000              0.7698532              5.5494416
Ar              0.0633630              3.6313974             -0.2215073
Ar              0.6210566             -4.5244847             -4.3438601
Ar             -3.7326651             -2.0700460             -0.5596857
Ar             -0.7993034              4.3589733             -3.7522388
Ar              2.0413315              2.7077879             -5.8746462
Ar              0.1610382             -1.9799103              3.5648575
Ar              2.2604791              0.1498183              5.9347104
Ar              3.2167378             -3.4181706              5.3638165
Ar             -0.4565993              5.4824320              2.8996277
Ar              0.0090135             -7.2297263              1.3509775
Ar             -0.8000990             -7.3562369             -2.3286470
Ar             -1.8830724             -2.5542724             -6.4810230
