42
Energy:            -193.6468
Ar              1.1904398             -0.8986322             -0.1746532
Ar              0.2162568              0.4253594              3.0491240
Ar             -1.8176315             -2.2016370              1.3384460
Ar             -1.7552525              1.2910450              0.0244764
Ar             -4.7726651              3.5363774              0.2146592
Ar              2.0088828             -2.1280038             -3.5073706
Ar              0.5473054              1.3909622             -2.8965158
Ar              1.7135890              2.6224959              0.4307343
Ar              4.1095658              0.5654198             -1.7640997
Ar              1.6720057             -3.0902458              2.6876651
Ar              4.6225275              4.2675882             -1.1338569
Ar              1.3052228              0.2584500             -6.3326891
Ar             -4.8719750             -0.0152287              1.5660822
Ar              0.7485669              4.0457965              3.7554104
Ar              6.8238825              1.6993364              0.5637199
Ar             -2.8715534             -0.8596096              4.6481102
Ar             -4.7626622             -2.9573075             -0.8303178
Ar              0.7287362             -6.6826496              2.1241420
Ar             -0.0904917              3.7572229             -5.7427434
Ar             -1.4726533             -4.4529603              4.2296361
Ar             -2.6930980             -5.7421955              0.7648436
Ar              2.2572611              6.2828865              1.0613521
Ar             -4.5400446             -2.3257494             -4.5866027
Ar             -2.3216305              0.7158731             -5.1937145
Ar              2.8762236              1.3335192              5.4429903
Ar             -4.1784874             -3.6864603              6.7138965
Ar              4.4037078              3.6333422              2.7531825
Ar              0.4751628             -4.3969425             -0.8263328
Ar             -1.2527730              4.9179287              0.6366669
Ar              3.8948625             -0.0525081              2.1046653
Ar              1.0886448              5.0432571             -2.3519568
Ar             -2.4343837              3.6517292             -2.7686564
Ar             -0.9395275             -2.8133908             -5.7483110
Ar              0.5423463             -1.7674544              6.0285918
Ar              4.1079824             -3.0644732             -0.3340849
Ar             -2.7776613              2.6787436              3.3178953
Ar             -2.4860966             -5.1220269             -3.0157253
Ar              3.4472317              2.9876533             -4.5560013
Ar             -4.6637484              0.6045629             -2.1915451
Ar             -1.6294349             -1.5833197             -2.3334606
Ar             -4.9336010             -3.5565141              2.9408957
Ar             -0.7840128              1.7792831              6.4120316
