42
Energy:            -186.1509
Ar              0.3405477             -0.0876918              0.9445149
Ar              0.4428326             -3.0539050             -1.0604116
Ar             -0.1468177             -1.7090065             -4.4826846
Ar             -1.8605525              2.9118684              1.7331170
Ar              0.9583273              3.3200956             -0.5267732
Ar              2.9948286             -0.6749585              3.6507937
Ar             -1.6847407              1.2415239             -1.9912665
Ar              1.4278385              2.7587301              3.2753538
Ar             -2.2418695             -3.4916869              1.5013366
Ar              2.0914260              0.3034300             -2.3572857
Ar             -3.5345740             -0.1491947              0.9232468
Ar              0.2175786             -5.7306847             -3.4460177
Ar              3.2822542             -3.1296438             -3.4460149
Ar              6.5498708             -0.5067318              2.0361478
Ar              3.7238299              1.4697378              0.7606606
Ar             -2.1218534              5.1356379             -1.2994522
Ar              3.7057128             -2.0438638              0.1358360
Ar             -4.8109435             -2.0335117              3.8524346
Ar              3.7630021              5.1027330              1.3626283
Ar             -5.1078416              3.1389125              0.0461098
Ar             -1.4112382             -0.2591028              4.0849812
Ar              4.2626288              3.6475411             -2.1904712
Ar             -4.7318220              1.8031776              3.8346578
Ar             -5.7542636             -3.1098305              0.2255065
Ar             -1.5900208              3.3226604              5.4198691
Ar             -5.8233910              0.0851130             -1.9921375
Ar              1.2777385             -3.7187487              2.4828069
Ar              5.1265343              2.5170996              3.9914538
Ar              0.0929266              6.0553388              1.8859240
Ar              1.2350809              0.9689546              6.5296804
Ar             -0.3421997             -6.4849551              0.3238304
Ar              1.7714906              6.7337537             -1.5117719
Ar              5.0034874             -3.9391864              3.0019566
Ar             -2.8031932             -4.2378279             -5.1468161
Ar              6.9833941              3.0660054              0.5433898
Ar             -2.8844960             -2.1959233             -1.9977674
Ar              5.9112848              0.1556253             -1.9062272
Ar             -4.3764320              3.1462041             -3.6928167
Ar              3.1688921             -5.6124091             -0.4813547
Ar             -3.4346888             -5.7365654             -1.6374580
Ar             -6.0519105             -3.3423922             -3.5530064
Ar             -3.6736490             -0.3821959             -5.0698618
