42
Energy:            -190.7822
Ar             -0.3218432              0.7958154              0.2126448
Ar             -2.3356273              1.3304792              3.1752721
Ar              1.1254435              2.7433962              2.8863045
Ar              0.6331637             -0.9351624              3.3039349
Ar              1.8347700              0.1550213             -2.6346517
Ar              1.0278773             -2.5446044             -0.0352258
Ar             -2.3747533             -1.9497158              1.3664223
Ar             -1.7860590             -1.3257500             -2.3443999
Ar             -1.6598499              4.1299123              0.6768009
Ar             -3.8732272             -4.2151340             -1.1675098
Ar              3.2177007             -3.3133247             -2.9180456
Ar             -4.4565088             -1.4590766              4.4044585
Ar             -1.2701866              2.5363122             -2.8393858
Ar             -3.7269098              4.6821556              3.8011235
Ar              6.8554653             -0.1275956              1.6339431
Ar              2.1348708              1.0307665              6.0727340
Ar              2.0278369             -4.3780244              3.0702078
Ar              2.4230871             -6.0114522             -0.3362971
Ar             -0.1806471              6.1495569              3.4944910
Ar              3.4116880              5.5089202              2.0173971
Ar             -4.5461828             -4.7756390              2.5390175
Ar              4.7637325              2.3333369              3.6585918
Ar              4.6597654             -3.0855530              0.6378733
Ar             -0.8928899              3.3362826              5.9757179
Ar             -6.0017179              1.5907347              2.7794186
Ar             -6.0127413             -1.6969520              0.8207355
Ar             -5.3787259              4.4942970              0.3978332
Ar              1.8924691              3.4970550             -0.8037874
Ar              1.6176819             -2.7150315              6.4663639
Ar             -3.8944957              1.1383589             -0.3464455
Ar             -1.0594013             -5.4301113              1.0969788
Ar              5.4787586             -0.3587577             -1.9101643
Ar             -1.4019924             -0.4070381              6.3664960
Ar             -7.7641037             -3.1182729              3.8233586
Ar              0.6385336              6.9672728             -0.1166499
Ar             -1.4554688             -3.7733331              4.5060377
Ar              5.5361875              3.0447907             -0.0218729
Ar             -0.4463112             -0.0414197             -5.5872720
Ar             -0.3630843             -4.7796812             -2.6340642
Ar              3.1966179              0.3370044              0.9264169
Ar              2.6275872              4.7701261              5.6659218
Ar              4.2457609             -1.4283301              4.0511335
