42
Energy:            -188.8072
Ar              0.1328733              1.1730440             -1.1374681
Ar             -2.6164165              2.3543606              0.9832699
Ar             -2.2546454             -1.1940271              0.3737275
Ar              3.2509814             -0.7325869             -0.6190658
Ar              1.6114482             -0.1053801             -4.1883287
Ar             -0.0016330              0.4088763              2.7214055
Ar              0.5915298             -3.0591042             -1.4072937
Ar              0.7623969              3.7467533              1.5454204
Ar             -3.9850849              1.3256968             -2.2708694
Ar             -1.6246294              4.3573720             -1.9348172
Ar             -4.8842931             -2.6451657             -1.6940199
Ar              1.6007098             -2.8299153              2.0604225
Ar              3.5077777              3.0155125             -0.8437166
Ar             -1.8187805             -1.3149489             -3.3701873
Ar              1.7553594             -6.1825264             -3.0029202
Ar              2.5195113             -1.0093334              5.1521307
Ar              5.2763680             -1.9748630              2.2629586
Ar              0.4101653             -3.5093421             -5.3263912
Ar              3.5567977              1.3356183              2.4371198
Ar              1.4452761              6.2763001             -1.0309767
Ar             -2.4165102             -4.8035199              0.6485832
Ar             -1.4889682              2.0009682             -4.9397494
Ar             -2.2874847              5.9664219              1.5137057
Ar              6.5389656              1.1004222              0.2220598
Ar             -5.3537954              3.6516334              3.0919265
Ar             -3.7218750              0.2411052              3.7827847
Ar             -1.8389476              3.4156942              4.4132612
Ar             -0.9235368              0.1485657              6.2891628
Ar              0.9081199             -6.3129963              0.6773070
Ar              3.9788491             -4.5016907             -0.2792496
Ar             -2.0368568             -5.1402744             -2.9925466
Ar             -5.1612818             -2.8275262              2.1733158
Ar              1.6795749              2.7800873              5.2463206
Ar             -5.2213315              4.4512990             -0.5885254
Ar             -1.6381674             -2.8186392              3.8122728
Ar              5.1715817              0.7376374             -3.3986665
Ar              3.7810260             -2.9989817             -3.6554833
Ar             -4.1182500             -3.2470204             -5.4911307
Ar              6.6847101             -2.2113193             -1.4051996
Ar             -5.8861464              0.5637296              0.7508186
Ar              1.6084013              3.6595303             -3.8570949
Ar              0.5165705              6.3477700              4.1564649
