42
Energy:            -186.3337
Ar              0.5698601             -0.6275312             -0.8484917
Ar              0.5507826             -3.5942454              4.6049647
Ar              0.0303950              1.9595192              1.7332418
Ar             -0.2705932             -3.2375606             -3.3771105
Ar             -0.5896699              0.3881564             -4.2598464
Ar             -0.4927340              2.9932161             -1.6599473
Ar             -0.4056068             -6.7689182              2.4605304
Ar             -0.3478076             -6.4016095             -1.2971913
Ar              1.0498552             -3.7518408              0.8700012
Ar             -2.1247498              4.8869069              1.1517324
Ar             -2.3723949             -3.2451451             -0.3309797
Ar             -2.9350062              5.7126295             -2.3814305
Ar              2.9367884             -4.6985843             -2.2782824
Ar              1.6091835              5.1070054              0.8270149
Ar              2.4799107              2.6499177             -3.7572648
Ar              0.9392480              6.1966782             -2.7191943
Ar             -3.8322267              2.2079442             -3.4721413
Ar             -1.2686383             -1.2714372              2.4406328
Ar              2.3596010             -0.7303873              2.7524959
Ar              2.8925645              6.5830145              4.0431424
Ar              2.8972074             -1.1023905             -3.6619991
Ar             -0.2910926              4.5036369              4.3717145
Ar             -3.6698337             -1.5884910             -3.3835371
Ar             -3.0082861             -4.3361573              3.3301175
Ar              4.0432946             -4.1034820              2.9845128
Ar             -0.0525355              0.7931098              5.2611872
Ar             -2.8328580              0.5114756             -0.3607582
Ar              3.2224327              1.8030536             -0.1414882
Ar             -3.3579979              1.8546811              3.1352498
Ar             -3.3969883             -5.3903757             -3.2586037
Ar             -3.7634742             -6.5776590              0.3950201
Ar              4.1808983             -1.8797525             -0.2113693
Ar              2.9325933             -6.9714619              0.7162679
Ar             -4.9851235             -1.4496695              1.8922961
Ar             -5.9499887             -3.6753978             -1.0888456
Ar              3.0713686              2.8433370              3.5934378
Ar             -3.3675169             -1.2039896              5.4394590
Ar              4.4324787              5.0692776             -1.6085437
Ar             -0.3195838              7.8753752              2.4815663
Ar             -5.1975492              3.3516844             -0.0943161
Ar             -6.5719444             -4.8685455              2.4005714
Ar             -6.3858184              0.0431077             -1.3653417
