42
Energy:            -192.6637
Ar             -0.6442912              1.1900942             -0.8509690
Ar             -3.0627324              0.8057815             -3.5392650
Ar             -1.6503064              0.0323374              2.4415135
Ar              1.7792991              1.4248596              1.8303889
Ar              0.8344000             -1.9063644              0.4387752
Ar              2.8111558              0.4806488             -1.6242873
Ar              0.0358476             -1.4795021             -3.1711651
Ar             -2.7156049             -1.7582871             -0.6620507
Ar              4.3920669             -2.6734016             -0.3695009
Ar             -2.1099243              4.3190249             -2.0114825
Ar             -1.2136352              3.6982003              1.6601801
Ar             -5.1878378             -2.3039270             -3.3505010
Ar              3.5800852             -2.2441335             -4.0604827
Ar             -3.8205233             -2.9922098              2.6874118
Ar              1.2739306              3.9485542              4.4933340
Ar              4.0587236              1.4544241             -4.9605158
Ar              1.5484709             -4.6775659             -1.9265475
Ar              6.3984534             -0.2325456             -2.4660618
Ar              0.7308721             -4.2419430             -5.6095182
Ar              0.8055270              0.2485432              5.2350833
Ar              5.1997530              3.3137336             -1.7278055
Ar             -4.8897191             -4.8108496             -0.4905960
Ar              1.6058645              4.0544561             -0.9607133
Ar              5.3794596              0.7345435              1.0752375
Ar              2.4254407             -2.9292335              6.5245623
Ar             -5.1580920              0.5149523              3.4622343
Ar             -6.2765148             -1.3366351              0.2668621
Ar              1.2055964             -0.5720673             -6.5560077
Ar             -1.2698802             -4.9646211              0.6351182
Ar             -1.7713951              6.2350671              4.3235963
Ar              3.3497429             -1.6927413              3.1322000
Ar             -4.1328097              1.7351066              0.0364224
Ar             -2.0897900             -4.5477849             -3.0638654
Ar              0.4623860              2.2371006             -4.1520202
Ar             -2.2337676              2.5259078              5.1068731
Ar             -4.7083534              4.2405909              2.8000736
Ar             -0.1915646             -3.1172135              3.7977769
Ar             -2.3565003             -2.0219416             -5.9331750
Ar              4.1294855              4.2638528              1.8505791
Ar              2.3549271             -5.0713118              1.7880726
Ar              4.2883822              1.6336849              4.6251271
Ar              1.1204916              6.5908061              1.7878569
