42
Energy:            -188.9674
Ar             -1.1273861              0.0215336              0.4602350
Ar             -3.7053509              2.4140609              1.4268930
Ar              0.2189723             -0.3863575             -2.8267663
Ar              1.6714649             -2.5339430             -0.1474753
Ar              2.4806405              1.1321928             -0.1418967
Ar             -1.0111904             -3.0482686              2.2755991
Ar              4.8572274             -0.8772544              2.0272182
Ar             -2.1957996              2.1850266             -4.6514461
Ar             -0.4789403              3.0258901             -1.4185378
Ar             -2.4864215             -2.8828206             -1.2666526
Ar              3.6531389              2.4763029              3.3129763
Ar              1.3785834             -0.4229686              2.9687056
Ar              0.1301359              2.9252590              2.2379208
Ar             -3.8982901              0.5210753             -1.8439507
Ar              2.5598030             -3.8562193              3.3227314
Ar             -2.1407166              0.2186861              4.0527653
Ar             -3.8736265              4.3307141             -1.9976784
Ar              1.5971490              6.2024970              1.3714152
Ar             -3.7451061             -5.3018199              1.4718298
Ar             -4.4093474             -1.4170613              1.5614100
Ar              0.9673448              4.0699569             -4.7555275
Ar              4.8211100             -1.4188200             -1.7080993
Ar              5.2453410             -4.2828719              0.7010484
Ar             -2.0730702              5.6580886              0.9929381
Ar             -0.3200836             -5.7080217             -0.2963831
Ar              2.9973019              4.4933133             -1.6042288
Ar              2.7465612             -6.9830872              1.2518934
Ar              3.1543236             -5.1719501             -2.2353906
Ar             -2.6194436             -1.5354038             -4.8730296
Ar              3.7148546             -0.8832816              5.6999930
Ar             -0.3698328             -6.3852513              3.5125822
Ar             -0.1826925              6.6178088             -2.1056051
Ar              3.3563878              1.3977353             -3.7645989
Ar              0.6686733              0.4704312             -6.3668478
Ar              0.0630549             -2.3631593              5.8177613
Ar             -3.5768881             -3.2953099              4.8432330
Ar             -2.2678968              4.0539271              4.6922037
Ar             -0.0718225             -4.0844374             -3.7162016
Ar              2.9054468             -2.2076835             -4.7771262
Ar             -0.9842205              7.6346091              3.9206692
Ar              1.5115044              5.1022463              4.9871669
Ar              0.7447162              1.6072997              5.9325704
