42
Energy:            -191.7468
Ar             -0.5586031             -0.0451970              1.3331101
Ar             -2.4258379             -0.1020400             -1.7744188
Ar             -0.3895485             -3.0297414             -0.7237003
Ar              1.2847816              0.0948655             -1.8568069
Ar              1.1369475              3.2042567             -3.9000713
Ar              2.4451603              1.9974152              1.0917376
Ar             -0.7103051              3.0061269             -0.6380045
Ar             -0.4919990              3.1486529              3.1373479
Ar             -0.7249778              6.2884629              1.0954589
Ar              4.8772376             -1.5738410              4.0769413
Ar              4.5663386             -1.5997809             -2.1228463
Ar             -2.6608277              3.0107134             -3.8310466
Ar             -3.7318720              4.9913204              3.0397395
Ar             -4.4170001             -0.1689934             -4.9690779
Ar              0.0917883             -6.3036292              0.9102536
Ar              2.9222509             -4.8071645             -1.0544508
Ar              5.5493689              4.1324255              0.8836338
Ar             -2.3482449              0.2202679              4.4883202
Ar             -3.5208004             -2.1823398              1.3763098
Ar             -0.8806158              6.1652642             -2.6870387
Ar              1.5296429              0.1163669              4.2990064
Ar             -3.3419813             -5.2195844             -0.9814248
Ar              4.6332211              2.2440074              4.0609141
Ar              5.7488344              0.3302040              0.9080701
Ar             -2.3110918             -3.1420555             -3.9440551
Ar             -5.6847872              1.6910024             -1.9147014
Ar             -3.8921724              4.8781054             -0.7432864
Ar              4.3566576              2.1939000             -2.1227880
Ar             -0.3111448             -3.2206753              3.1191623
Ar             -5.4501915             -2.1877798             -1.8829632
Ar             -3.7568267              1.6836017              1.2879223
Ar              2.3334499              5.1666920             -0.8966851
Ar             -0.6261320              0.0552756             -5.0627511
Ar              5.9288131             -3.4779459              0.9053270
Ar              3.1654991              0.2518780             -5.1373270
Ar             -0.3135612             -2.1123545              6.7021430
Ar              2.5441577              5.2830777              2.8867248
Ar             -3.6470819             -3.1404073              5.1541471
Ar              1.4823164             -2.9276652             -3.9963448
Ar              2.6182320             -1.7848637              1.1306299
Ar             -0.1792717             -6.1205742             -2.8715393
Ar             -3.1352330             -5.7962154              2.6684475
