42
Energy:            -190.3401
Ar              0.9898881             -1.3141368             -1.4937714
Ar              0.1902608             -2.3731062              2.0626255
Ar              2.7865610              0.0381366              1.1991523
Ar             -1.7519650              0.7183794             -2.3437570
Ar              1.4841563              0.8026570             -4.5475416
Ar             -0.8823351              1.1100486              1.2525670
Ar              1.5014108              2.4856522             -1.3099148
Ar             -2.2951876             -2.5703674             -0.7275919
Ar              3.4032725             -3.5312314              0.0596735
Ar              0.3286144             -4.8892374             -2.1346805
Ar             -5.4399803             -3.7170446              0.6791619
Ar             -1.5925947              4.4864815              2.7525847
Ar             -4.4244713             -1.3717942             -3.8603687
Ar              4.4744916             -0.3226841             -2.0713993
Ar              5.3290324              2.4859494              0.3223210
Ar              3.6048030              5.6913510             -0.2397005
Ar             -4.7666960              2.3579773              2.5119347
Ar              6.2523298             -1.1481223              1.2362428
Ar             -3.1311772              3.5967042             -0.5573448
Ar             -4.9038046              0.1565581             -0.4963024
Ar             -3.2669534             -4.9070602             -3.5582587
Ar             -3.4096831             -1.1686819              2.6309230
Ar              2.0002855              3.3925542              2.2219938
Ar              2.8736108             -2.9510604             -4.1955078
Ar             -2.6531681             -6.3076203             -0.1965770
Ar             -4.7708620              2.4091119             -3.7021162
Ar              4.5353159              3.1668385             -3.3251655
Ar              0.9893804             -4.8271169              4.8922764
Ar              0.7664103              3.9773204              5.6450577
Ar             -2.4645559             -4.7264316              3.1218518
Ar             -2.1636861              1.5623850              4.9890328
Ar              1.3390053              6.9393318              2.8610281
Ar             -0.0986600              5.6883837             -0.4394630
Ar              1.2492730              0.3813930              4.4712505
Ar              0.7714044             -5.9695871              1.3705525
Ar             -1.3508514             -2.0490935              5.5973676
Ar             -2.0962210              0.9904887             -6.0176248
Ar              1.9955537              5.8429793             -3.5991478
Ar             -1.1465158              3.9605476             -3.7905365
Ar              3.6561359             -2.4579483              3.7386693
Ar             -0.8424693             -2.2310539             -4.5460561
Ar              4.8453650              1.3511082              3.9393055
