42
Energy:            -192.9319
Ar              0.0775040              0.3558159             -1.6507219
Ar              2.7802267              1.9645464             -3.4727862
Ar              0.8640855             -2.8237113             -0.0227524
Ar             -2.4496159             -1.2049579              0.5073879
Ar              0.5931035              0.2514866              2.0446206
Ar             -1.9477473              2.4817494              0.5163922
Ar              1.6877584              3.1579382              0.0132111
Ar              3.4271066             -0.1287888             -0.3173660
Ar             -1.4626535              2.4518067              4.2365738
Ar             -2.8324468              5.8521627             -0.7301770
Ar             -1.5863399             -2.5884502             -2.8833225
Ar              6.2466232              1.4629725             -2.1180793
Ar             -0.3565558              5.4339552              2.1644080
Ar              4.3208772             -3.3878335              1.2808745
Ar             -4.1971406             -4.2403125             -0.7015402
Ar             -0.7282542              3.6611155             -2.9337751
Ar              2.2495204              3.1318139              3.7203208
Ar             -4.0668351              4.7185780              2.6787165
Ar              3.3659919              6.0966341              1.6639482
Ar             -1.6983154             -4.4770632              2.1537968
Ar             -5.5084130              3.0064361             -0.4100115
Ar              6.9250342             -0.6234675              0.9851656
Ar             -3.3889372              0.8241423             -2.5839638
Ar             -4.5897247              0.9564704              2.6810659
Ar              1.6912331             -6.1199538              1.6095658
Ar              3.0330455             -5.2119206             -1.8255122
Ar              5.6956152             -2.4221990             -2.1416936
Ar              0.9455595              6.5650184             -1.2374253
Ar              4.0319395             -0.2256002              3.3837821
Ar             -3.2962743             -5.6426545             -4.1226782
Ar             -1.9717867             -1.3182067              4.2316893
Ar              2.2317395             -1.9265491             -3.4881287
Ar              5.1693781              2.7502241              1.3147486
Ar             -7.0221407              1.1383983             -3.4217310
Ar             -0.8009286             -5.9047383             -1.2396248
Ar              0.5143897             -5.1014028             -4.6702535
Ar              1.4198202             -2.9757709              3.6933305
Ar              4.4421247              4.8743288             -1.7737180
Ar             -6.0114109             -0.8109762             -0.3615616
Ar              1.1358569              0.1680491              5.7922733
Ar             -5.0749749             -2.8204779              2.7013649
Ar             -5.2139824             -2.2709867             -3.7591914
