42
Energy:            -189.1184
Ar              0.7499493             -0.0463885             -1.1127145
Ar             -2.6959865              0.0516196             -2.1926944
Ar             -1.3892407              2.5454140              0.2440001
Ar              1.4985641             -2.7082686              1.2020504
Ar              4.1700872             -0.1755025              0.1310355
Ar             -0.9208330             -3.1860740             -1.5928740
Ar              1.0779415             -6.0258190             -2.8704520
Ar             -1.0165066              3.3930074              3.8307933
Ar             -1.8377236             -0.9946711              1.3204967
Ar              2.2405251              3.1173439             -0.3507663
Ar              0.1234837              5.8290081              1.1463631
Ar              2.8366864             -2.7267144             -2.4178631
Ar              3.3655162              1.0251710             -3.4178944
Ar             -3.5743357             -4.2558870              0.8034717
Ar              5.7176221              3.1420964              0.9603755
Ar              2.2893887             -5.4772880              3.6044108
Ar             -3.6681450              2.8030877             -4.4691800
Ar              3.5666265             -5.5216541              0.0113707
Ar              2.7929551              4.0507527              3.1941383
Ar              1.3800785              6.0390136             -2.4601479
Ar             -4.9399323              2.7312686             -0.8742936
Ar              1.1939280              0.8067163              2.3921461
Ar             -2.6372988             -6.4746810             -2.1350560
Ar              2.0105128             -1.8692023              4.8253961
Ar              0.9917044              5.6168685              6.0573994
Ar             -3.4314214             -0.9166014             -5.6744295
Ar             -4.4893925             -2.0117323              3.7396621
Ar             -1.5956009             -4.2516895             -5.0665285
Ar             -1.1010180             -3.7616093              3.6832304
Ar              1.6597665              1.7692340              5.9816655
Ar              0.1800724             -0.9602841             -4.5822471
Ar              4.6300432              0.7374282              3.7571512
Ar             -0.1783988             -6.0093414              0.7430666
Ar             -2.3198097              5.3729062             -1.9143996
Ar             -3.5793533              5.2350394              1.6801042
Ar             -4.4673537             -3.1885067             -2.7616319
Ar              4.9281445             -2.9147472              2.5817029
Ar              4.8740975              4.3995173             -2.5967795
Ar             -4.1253720              1.6147447              2.6645189
Ar             -0.0892685              2.6873316             -3.3682569
Ar             -5.3967468             -0.9471159              0.1687341
Ar              3.8169852              6.4354394              0.4520804
