42
Energy:            -193.4629
Ar              0.9646847             -0.9738843              0.7558390
Ar              5.1990810              1.3736285              4.6983035
Ar             -2.4125745             -2.1096604              0.1847847
Ar             -0.0555724             -1.5767806             -2.6620659
Ar             -1.4083006              1.3499061             -0.8090529
Ar              4.3316788              0.3150821              1.2073522
Ar              1.2092587              2.5304691              1.5825097
Ar             -1.6587631              0.4616324              2.7887215
Ar              1.8391333             -0.2053008              4.1981439
Ar              0.6096284             -4.4535929             -0.2284232
Ar             -0.8658188              1.3268482              6.2999483
Ar              4.5610815              4.0030229              2.0497700
Ar             -5.1714634             -0.6809925              2.2694768
Ar              3.3082258             -3.2741366              2.3218541
Ar             -2.9447448             -5.6128950             -0.8474738
Ar              3.4630098              3.6135538             -4.4514235
Ar             -2.4732695              0.7511085             -4.3225480
Ar             -1.1883355              4.9609565              0.0156056
Ar              1.4596350              6.1767980              2.4399669
Ar             -0.4992519             -5.0849493             -3.7582351
Ar              2.4547706             -2.9038163             -5.0250306
Ar             -4.3701598              1.9334173              4.9293419
Ar              1.1938103              0.6891091             -5.3558783
Ar              2.4731944              4.9144613             -1.0103549
Ar             -3.5256612             -2.7718774             -3.3257302
Ar             -3.9974039             -4.2882661              2.7102085
Ar             -3.1991469             -1.6631480              5.3997504
Ar             -1.0837536             -6.6745485              2.2739536
Ar              3.5187273             -2.3014382             -1.4564869
Ar             -3.8416244              3.7324425             -2.4137969
Ar             -0.4456018             -3.1331279              3.3163868
Ar             -1.4606143              4.0733162              3.7011789
Ar              5.5740780              2.6968862             -1.4137208
Ar             -5.9274755             -3.2869137             -0.4110346
Ar             -4.8897448              0.2184403             -1.4123912
Ar              6.0477655             -3.5220849             -3.9517292
Ar             -4.1147576              2.8394432              1.2606028
Ar              4.7584927              0.0482787             -4.1351402
Ar              2.0628779              3.4749471              5.0486432
Ar              2.1751378              1.2814398             -1.8009350
Ar             -1.0985417             -2.2316251             -6.2124858
Ar             -0.1882561              3.6788839             -3.4405680
