42
Energy:            -187.5202
Ar             -0.9457095              0.6062964             -0.5480714
Ar             -3.9796992              2.9035257             -0.7234333
Ar             -1.6169796             -2.1844888              1.8137833
Ar              2.8341320              3.4097222              1.8000488
Ar             -3.0121655              1.1474600              2.3643497
Ar              2.7052598              0.0899896             -0.1315459
Ar              1.1272478              0.0055051             -3.4142919
Ar             -2.2205436             -1.5106651             -3.3735411
Ar              1.9954096             -2.7184469              2.2689435
Ar              4.5016581              1.4399597             -3.2757810
Ar             -4.3193243             -0.8749002             -0.3566238
Ar              0.5545267              0.6759404              2.8331015
Ar             -5.0544258              1.6166495              5.3366849
Ar             -1.7249626              2.3712500             -3.7163473
Ar             -1.9308761             -0.7095965              5.3425880
Ar             -5.0794494             -1.7176824              3.3327598
Ar              4.2605473              0.2440398              3.2927360
Ar              3.9588837             -2.2896686             -2.8485824
Ar              2.9634430             -0.5594959             -6.4900817
Ar             -5.6795918             -2.9851760             -3.1823331
Ar              5.9083848              1.8452661              0.2876524
Ar              5.3795259             -2.3172110              0.7723850
Ar             -6.5931240              1.4306816              1.7071459
Ar              0.7658063             -3.3072550             -4.9404567
Ar              1.4627378              3.2814938             -1.7135581
Ar             -5.1841162              0.7813724             -3.5956030
Ar             -2.9136725             -4.3238787             -0.9521186
Ar             -0.4758664             -4.1513429              4.7455348
Ar              1.8025232             -1.2589783              5.7592713
Ar             -6.4318237             -3.7887268              0.4759351
Ar             -3.6238545             -5.1527328              2.7117660
Ar              1.6431011              2.9269331             -5.5444635
Ar              4.8873955             -3.2399584              4.5446953
Ar             -4.3706260              4.4983651              2.7877381
Ar              0.5627318             -2.8609491             -1.1560138
Ar             -0.8436843              3.9087122              1.2526050
Ar             -0.8177521             -0.0173071             -6.5474698
Ar              7.3642945             -0.7454468             -1.9354254
Ar              2.2731907              2.5579418              5.5195421
Ar             -7.8981280             -0.6049943             -1.2118374
Ar              6.4794354             -1.0568833             -5.5088629
Ar             -1.4306550              3.1227635              4.9955791
