42
Energy:            -188.4366
Ar              1.4499320             -0.4941989              0.0293022
Ar              1.1464448              4.0443365              3.8944134
Ar             -0.7228714             -3.3332578             -1.2055277
Ar             -0.6017429              0.0047616             -2.8482386
Ar             -2.2879841             -0.4406649              0.5735815
Ar              1.1044952              0.4034019              3.5300372
Ar             -2.3090525              1.6725542              3.6388534
Ar             -3.0376304             -4.8790866              1.5811373
Ar             -0.0748805             -2.7993404              2.3526728
Ar              2.2813579             -2.5018420             -3.1069456
Ar              4.2098959              2.0886033              4.9405385
Ar             -0.0597004             -2.1063544              6.0235700
Ar              3.4967247              2.3325292              1.3232638
Ar              4.8203673             -0.2734371             -1.2649885
Ar             -0.2854088             -4.7266339             -4.8001567
Ar             -1.6254156              6.2324164             -0.4919522
Ar             -4.3397983              0.5687124             -2.3722165
Ar              2.6532574             -4.3688866              4.1214403
Ar             -2.2277577              5.3193045              2.9974446
Ar              0.3193882             -1.1946422             -6.1679759
Ar              0.5983951              2.6251391             -5.4816938
Ar             -2.6312884              0.3639717              7.0874939
Ar             -1.8738100              3.3699633             -2.7340401
Ar             -3.2462093             -1.9470143              4.0003216
Ar             -2.9922948             -2.3307248             -4.4199460
Ar              0.3720993             -6.3237041              1.3262350
Ar              1.0305225              1.4844155              7.0062338
Ar              1.6981562             -6.2426742             -2.1344614
Ar              2.1144388              2.4914942             -2.0908768
Ar             -1.6599475              4.0277236              6.4923133
Ar              2.9841662             -3.8076784              0.3400760
Ar              3.5264070             -1.3266017              6.1854063
Ar              1.9686505              5.6009448              0.3952468
Ar             -4.5141445             -2.9790945             -1.1431391
Ar             -2.1885223             -6.5762086             -1.7928428
Ar              3.5697806              0.4594927             -4.8527385
Ar             -1.0841375             -5.4503473              4.7484303
Ar              0.9252893              5.8030023             -3.2872399
Ar              4.2931142             -1.1331737              2.5200296
Ar             -0.2959364              2.7085467              0.6850808
Ar             -2.7860106              1.1522388             -5.7539806
Ar             -3.9434636              3.0596266              0.4497821
