42
Energy:            -185.0668
Ar             -1.1257296             -1.0884967             -1.3341544
Ar             -4.2082019             -0.6175371              0.8579223
Ar              2.5033972              1.4696931              1.3577694
Ar              2.6606341             -1.0452166             -1.4490484
Ar             -3.0154050              2.1092501             -1.3538944
Ar              0.9068558             -1.7741277              1.6283671
Ar              0.6763798              2.1112848             -1.6637986
Ar             -4.4951699             -0.8649485             -2.9144963
Ar             -1.1168637              1.2134498              1.5965065
Ar              2.6555343              4.9668893             -0.2145494
Ar              0.8342769             -4.3943129             -1.0651964
Ar              4.5327386              2.1031742             -1.7855443
Ar             -0.9566835              4.6866351              0.5703778
Ar             -2.1348952             -3.7596734              1.0455371
Ar              5.5655111             -0.4120618              1.1837516
Ar              4.0171399             -3.7905978              0.7563949
Ar              5.6261560              3.4777303              1.5509043
Ar             -4.4253267              3.0214766              1.9172099
Ar             -5.5389150             -3.7762762             -0.5293194
Ar             -2.5037057             -4.2036519             -2.7328162
Ar              3.4619724             -2.1043191              4.1446683
Ar              1.0708449             -5.2632418              2.6997173
Ar             -2.4517168             -6.1465530              3.9012693
Ar             -4.2916509              5.5427198             -1.0458898
Ar             -3.4487086              6.6013779              2.5784934
Ar             -4.7822413             -3.1264383              3.5614527
Ar              1.8513880              4.3410473              3.4218021
Ar              3.9347143             -4.0445136             -3.1697845
Ar             -4.5968647              2.8328787             -4.5593948
Ar             -1.3506024              4.7032350             -3.3779558
Ar             -1.0544451             -2.6857494              4.5691543
Ar              0.7676163              0.6673609              4.6636650
Ar             -5.8847839             -4.0313648             -4.3672291
Ar             -1.6568413              3.7020028              4.3270770
Ar             -2.8286209             -2.2637749             -5.9514161
Ar              2.4026629              4.4672658             -3.9609623
Ar              4.4378176              1.5109238              4.5093347
Ar              0.5738824             -2.4780460             -4.3035706
Ar              5.2033923              5.2139422              4.8809287
Ar              2.4327019              0.7613806             -4.7050292
Ar             -1.3534493              0.8867937             -4.5080988
Ar             -3.2829100              0.2959378              4.4273364
