42
Energy:            -185.6410
Ar              0.5189153             -0.2440707              0.2569638
Ar              1.3411682             -0.5230215              4.0173084
Ar              1.0852044             -3.3460645             -1.6576664
Ar              3.0045752              0.6945163             -2.2840695
Ar              0.3368326              3.0716047             -1.3567659
Ar             -0.4167030             -0.0563964             -3.3188545
Ar              1.3632936              2.7441318             -4.9836443
Ar             -1.2631054             -2.6173676              2.2704243
Ar             -1.8931440              0.9510586              2.8725484
Ar              1.2714421              2.7681792              2.2111319
Ar             -2.8149177              1.2425257             -0.7015309
Ar              0.8200412             -4.2661444              4.8456205
Ar             -1.4813415             -3.2551641             -4.7261034
Ar             -2.8688875             -5.0938161              4.4479357
Ar              0.0490907              5.6031138              4.2109981
Ar              4.6921742             -2.4027296             -1.3397950
Ar              4.0042114              0.2966259              1.3605595
Ar              2.2042811              5.8393909             -2.9880583
Ar              3.9872464              2.0469402              4.7072928
Ar             -1.5218044              6.1914411             -2.0839819
Ar             -1.6110147             -5.9488357             -2.1339613
Ar             -5.2524173              2.4567977              1.8650364
Ar             -4.6567843             -1.2942919              1.5202118
Ar              2.3975885             -1.9757663             -4.8399305
Ar             -0.0579247             -5.8775473              1.2733305
Ar              3.7745260              5.4402176              3.1257665
Ar              2.5422516             -3.1510608              1.7033656
Ar             -2.3469336              3.0329364             -4.0117808
Ar              1.4130156             -5.6886477             -4.5137475
Ar             -4.7551441              4.3389379             -1.3988703
Ar             -4.1091691             -0.4427467             -3.8345435
Ar             -4.9542109              0.3062957              4.9483055
Ar             -3.2363547              3.7765835              4.8307893
Ar             -2.0363732              4.3528659              1.2543419
Ar             -2.3305546             -2.3353935             -1.1740179
Ar              3.8999412              3.7179112             -0.2665862
Ar             -3.8462334             -5.0283600              0.7968203
Ar              4.9660982              3.4108630             -3.8924322
Ar              1.1394675              6.2156301              0.5987571
Ar             -4.8841206             -4.1893236             -3.0013606
Ar             -1.8241839             -1.5939580              5.7694699
Ar              6.5536917              1.0791629             -1.2800431
