42
Energy:            -194.9682
Ar             -1.4727085             -0.3804050             -0.1823029
Ar             -5.9464040              2.2964888              3.2706613
Ar              0.7462750             -0.1900723             -3.0297690
Ar              1.1371202             -2.8675054             -0.4467007
Ar              1.9985079              0.6674576              0.3782506
Ar             -3.5504105             -0.5476305              2.7928806
Ar             -0.8358951              2.1327000              2.3259656
Ar             -0.4474975              2.8994621             -1.3089758
Ar             -3.9599328              2.2527573              0.0908550
Ar             -1.9038892             -2.9080303             -2.7375564
Ar             -2.8831991              5.6707237             -1.0332382
Ar             -2.8390609              2.0813189              5.4260016
Ar              1.8246806              3.1733440             -4.2574760
Ar             -4.8990700             -1.4464780             -0.7674005
Ar              0.4345576             -2.7393013             -5.6910097
Ar              1.8724006             -2.5143851              6.0306191
Ar              4.7080261             -1.8578456              0.1172767
Ar              2.6933564              3.2516407              2.9509382
Ar             -0.1691192              4.7482086              4.9354390
Ar              0.8348471             -5.4813089             -3.0456910
Ar              0.4537399             -6.2810411              0.7832163
Ar              0.5826095              6.3133405             -2.4871048
Ar              2.8723145             -4.0020263              2.6653834
Ar              0.8544696              1.1209963              5.5067362
Ar              3.4631492             -2.7322738             -3.3675432
Ar             -0.6103703              1.0070521             -6.2481745
Ar             -1.8613666              4.1786821             -4.4837093
Ar             -3.2082363             -1.7457926             -6.0409416
Ar             -2.3012371             -3.7024420              1.0496796
Ar              5.5591367              1.7468784              0.9577757
Ar             -2.9582754              0.7949696             -3.2890031
Ar              0.2062183              5.5543320              1.2287578
Ar             -1.8232181             -1.5797621              5.9641297
Ar              4.3088248              0.8770056             -2.5211659
Ar              3.0511309              0.0057447             -5.9880254
Ar             -2.5288636             -6.3970000             -1.5538653
Ar              3.0775425              4.0390987             -0.7662671
Ar             -0.5501592             -4.8011344              4.1811612
Ar             -3.2510814              4.8980716              2.7076275
Ar              0.1835618             -1.4206799              2.8596151
Ar              3.8474787             -5.4513752             -0.7232509
Ar              3.7239082             -0.3846457              3.5019781
