42
Energy:            -187.4695
Ar              0.5150798              0.1053976             -1.0564542
Ar              2.8091956             -0.4768452              2.5065018
Ar             -0.8586412             -1.1565036              3.0953834
Ar             -3.3685711              0.2274548             -2.6742505
Ar              3.1746757              0.5953912             -3.7870345
Ar              1.7737072              3.9387042             -2.6306074
Ar             -3.1576730              0.9357107              1.1366208
Ar             -2.1981802             -2.2347707             -0.3155656
Ar              1.0908690             -3.1557302              0.6708236
Ar              0.2660200              2.1888035              1.8500040
Ar              3.6755369              1.9103195             -0.2020943
Ar              1.0792816             -2.7480527             -3.2260902
Ar             -0.3905267              1.3504568             -4.4927623
Ar              1.1916862              1.2339866              5.3690945
Ar              4.8054391             -2.8689987             -4.2250464
Ar             -4.4663778             -2.2859732              2.6371326
Ar             -6.1062117             -0.6936529             -0.3606003
Ar              3.4906720              3.4021257              3.1721067
Ar              6.3857139             -0.4061021              1.3788169
Ar              3.8095986             -1.6089375             -0.9441098
Ar             -6.7635446              1.3854983             -3.6635725
Ar             -6.0996811             -2.3415478             -3.6847275
Ar              6.6962932              0.0786569             -2.3995486
Ar             -5.2023945              3.2546966             -0.8362158
Ar             -1.7254066             -4.8673864              2.3306404
Ar              5.4853346              3.5776825             -3.0450102
Ar              1.5566956             -3.7186650              4.2956738
Ar              0.5272185              5.6497356              0.5632376
Ar              3.3300520             -5.2525270             -1.4838019
Ar              0.1421912              4.8663101              4.3556889
Ar             -3.6100993              3.6342840             -4.2715134
Ar             -4.9416410             -4.5073983             -0.7070749
Ar             -1.4903095              3.1011149             -1.2939813
Ar             -2.3972701              1.9656428              4.6166507
Ar             -0.7530649             -5.6033148             -1.3252972
Ar              4.2118054              5.5485282             -0.0066543
Ar             -2.8065377              4.5693189              1.9100132
Ar             -2.9869576              6.4126061             -1.4376003
Ar              6.8995758             -3.5501271             -1.0384097
Ar              1.6758143             -6.6040682              1.6927304
Ar              4.5323239             -3.8644716              1.9328964
Ar             -2.5388307             -3.3315854             -3.8117039
