42
Energy:            -187.4241
Ar             -0.3477353             -0.4602601             -1.6587424
Ar              3.0878515             -1.1504933              1.4609038
Ar             -0.4849133             -1.8373930              1.7407474
Ar              1.6403820             -3.3520798             -1.3390797
Ar             -1.3725379              2.9960298             -1.9609322
Ar              1.7795411              2.1308605             -0.2481798
Ar             -1.6438235              1.6616149              1.3650446
Ar             -2.9488815             -3.1182334             -0.7234606
Ar              1.3963422              1.3997190              3.3449680
Ar              1.9299547             -4.7472358              2.0502443
Ar              4.6907724             -3.7943985             -3.5624334
Ar              4.6747146              3.2170772             -2.3356455
Ar              1.7793642             -1.6762686             -4.7925260
Ar             -4.4994215              2.6232302              3.4813539
Ar             -2.1367603             -3.3367157              4.8234002
Ar              3.8862931             -0.4210184             -2.0072178
Ar             -1.9320941              0.5179576             -4.7963250
Ar             -4.0937007             -1.0571583              2.2486153
Ar             -4.4707142              3.8356046             -0.0963692
Ar             -4.8324668             -1.8767309             -4.0226482
Ar             -1.7470708              0.3049667              4.8719195
Ar             -1.1480458              4.3631477             -5.3212431
Ar             -3.9488855              0.3961309             -1.2800191
Ar              1.4837921             -2.0629548              4.8380528
Ar              5.1533643             -3.8414233              0.1060363
Ar              4.8986577              2.1858932              1.5966285
Ar             -1.0734365              3.9730258              4.4112918
Ar             -1.3866061             -3.2568818             -4.0131980
Ar              1.5499494             -5.5177188             -4.5157338
Ar             -0.0469358              5.0404396              0.9787916
Ar             -0.7528596             -6.1502586             -1.6238884
Ar             -2.3003256              6.5067544             -1.7255414
Ar             -3.2643698              6.2592585              2.3814337
Ar              3.6499664              5.5434925              0.3648755
Ar             -1.7170933             -5.4766453              1.8753334
Ar             -4.5205820              3.1632946             -3.8566106
Ar              1.3733970              5.3576421             -2.5571465
Ar              3.0517888             -6.7220743             -1.1820219
Ar              4.5818010              0.2025422              4.7782803
Ar              4.9293443             -3.4260086              3.8675687
Ar              2.6363794              4.7775456              3.8163986
Ar              1.5343897              1.9098469             -4.0033261
