42
Energy:            -186.3752
Ar              1.2941193              0.3099691              0.0336215
Ar              4.8353618             -0.7159373              0.0058624
Ar             -0.7953054             -5.3981453              0.5053566
Ar             -2.0917189              1.4846246             -0.6759481
Ar              2.0523546             -3.0877804              1.0164110
Ar             -4.6232463              3.4917175              1.1893024
Ar              2.3305303              6.1649056             -1.3904408
Ar             -1.4940676             -1.7874810              1.1222921
Ar             -1.9911304              5.1547002              3.3303911
Ar              0.0541267             -2.5652171             -2.0373873
Ar              3.6524575              5.4713456              2.1622026
Ar             -0.8426325              0.2379520             -4.1596873
Ar              3.6455418             -3.4380023             -2.3668265
Ar              0.6410475              3.5964536              1.2778945
Ar             -0.0962239             -4.0841115              3.9438670
Ar             -4.4435945             -3.9481184              0.7002597
Ar             -5.5843125              1.5775826             -2.0087143
Ar             -2.0638374              1.3974056              3.0144769
Ar              0.6425554              3.1106189             -2.4516941
Ar              3.6627525              1.6815967              2.7663165
Ar              3.7713825              3.8309253             -4.3000725
Ar              4.4411406             -2.0023582              3.5984677
Ar              2.9081645              0.1918927             -3.2287762
Ar             -3.5322058             -1.5998683             -2.1272908
Ar              0.6975569             -5.7923741             -3.5468752
Ar              0.9461101             -0.6091056              3.6706902
Ar              3.9460959              2.8821871             -0.6860433
Ar             -4.9148531             -0.2682867              1.2059432
Ar              0.3309373              7.4277136              1.4347148
Ar              1.2540059              6.5631990              4.9152085
Ar             -2.9322950             -5.3195783             -2.4542811
Ar             -1.9029196              5.3048664             -0.7113106
Ar              1.6789147             -2.5348424             -5.4477517
Ar              5.6078290             -4.3246130              0.7642373
Ar             -3.4042614             -2.1861591              4.1764647
Ar              3.2211864             -5.7216487              3.3457138
Ar             -1.9630631             -3.1654961             -5.2612710
Ar              0.7991544              2.8984330              4.9244531
Ar             -2.8410532              3.3937984             -3.8464948
Ar             -3.1887331             -6.0485820              3.4721856
Ar              2.6766951             -6.4960733             -0.3755514
Ar             -5.4599906              5.3722445             -1.9665769
