42
Energy:            -189.4507
Ar             -0.4734240              0.8607729             -0.3315997
Ar              2.5355652              0.7496541              1.8488029
Ar             -4.2059899              0.5344965             -0.5987294
Ar              2.8275820              1.7490801             -1.6862228
Ar             -1.9089035              0.4484411             -3.7635403
Ar             -4.4341121              1.6639443              3.0158401
Ar             -4.8910328             -1.9580134             -3.4653281
Ar             -2.3175879             -1.3056555              2.1506104
Ar              4.3377045             -1.5026270             -0.5850900
Ar             -4.0291799              3.4296047             -2.9843985
Ar             -1.9537037             -2.2878150             -1.3367688
Ar              1.2652255             -1.4048112             -2.8102494
Ar              0.7396215             -1.4040480              4.3688310
Ar             -0.2875499              3.7447418             -2.6664964
Ar              6.5267349              1.4542584             -1.4851387
Ar             -0.7064815              1.8676118              3.1918821
Ar              4.0375279             -2.5474886              3.0040540
Ar              6.2253339              0.3847644              2.1570516
Ar              0.9880176             -2.4128099              0.7847106
Ar             -5.1144139             -3.1055425              0.3179567
Ar              4.7624437              3.6669923              1.0200303
Ar              3.2020160              5.3710957             -2.1452062
Ar              2.4575132              3.7320253              4.1535725
Ar              3.8137310             -4.0488274             -3.3448914
Ar              0.4191450             -5.0307382             -1.9421031
Ar             -3.4401347             -5.4435507             -2.3617355
Ar              1.2311296             -5.0606692              3.3715542
Ar             -2.7077584              3.4526883              5.9386179
Ar             -2.0803342             -3.9273442              4.7790105
Ar             -2.5953923              3.8029912              0.5073443
Ar             -1.7769820              3.3746453             -6.1062529
Ar              4.8492120             -6.1668707              3.6460519
Ar              1.4400839              1.5151461             -5.1586492
Ar             -0.8750701              5.5922876              3.4709332
Ar              3.9449290              0.4548246              5.2761103
Ar              4.6086834             -0.4063496             -4.2108265
Ar             -1.8178180             -4.9813963              1.1520175
Ar              1.1108998              4.0878545              0.7196805
Ar             -2.5905081             -0.2921678              5.7391328
Ar              0.5844322              1.6085292              6.6639059
Ar              3.4742528             -5.1168769              0.2686547
Ar             -1.3931242             -3.1992601             -4.8435932
