42
Energy:            -190.0157
Ar              1.1868152              0.7505682             -0.0910751
Ar              0.8213910             -2.8499954              0.9888964
Ar              2.9165164              3.8086275              1.2732255
Ar             -2.5445703              0.9775382              1.3137647
Ar              3.0952859             -0.4278768              2.7920544
Ar              2.3119039              0.5304276             -3.8536633
Ar              3.6692022             -1.6737696             -1.0780214
Ar              0.1678146             -2.0358922             -2.4280668
Ar             -1.6239730              1.2499356             -2.2158343
Ar             -2.6965179             -2.2754189             -0.1917956
Ar             -0.6651256              3.8841866              0.2470536
Ar              5.9113769             -0.7113258             -3.8879529
Ar             -0.9760426             -1.3499805              3.7199427
Ar             -0.5156868              2.5054765             -5.4589537
Ar             -2.9853033              4.3166164              3.0776289
Ar              0.4377251              5.8516517              3.2347448
Ar              3.0271236             -3.0549296             -4.6458690
Ar             -2.0377542             -4.7020874              2.6383286
Ar              2.3501768             -5.1274668             -1.6193871
Ar             -4.6510959             -1.6515324              2.9126331
Ar              1.8348816             -3.6327549              4.4831555
Ar             -4.3641154              2.4160833             -4.2576749
Ar             -5.9227850              1.9282279              2.3531797
Ar             -5.2457787              0.2323934             -1.1553368
Ar              0.2596363              2.0610665              3.2449064
Ar              1.3719539              0.1607412              6.1953665
Ar              1.2619065             -6.4225653              1.8154048
Ar              4.7242337              1.8439305             -1.2737685
Ar             -0.1652086             -1.2590194             -6.0283899
Ar             -3.1855473              1.2255925              5.0668747
Ar             -0.3512684             -4.8775082             -4.6408913
Ar             -4.2664360              3.7659581             -0.5619406
Ar              1.7060037              3.8219205             -2.4847403
Ar             -0.6374605              3.7863203              6.3117201
Ar              4.3021739             -4.1226798              1.5830871
Ar              3.0730246              3.4666521              5.0700596
Ar              1.2733756              6.9323144             -0.3832954
Ar             -2.4679704              7.0422421              0.4429059
Ar             -1.7988718              5.1226096             -3.0214781
Ar              5.9410947             -4.2790526             -2.3287469
Ar             -3.2664770             -1.6210906             -3.8931087
Ar             -1.2340083             -5.5148403             -0.9961580
