42
Energy:            -188.1288
Ar              0.0864434             -0.3819423             -1.1232504
Ar             -0.0610417              0.2761931             -4.8533734
Ar             -1.8349759              2.2314809              0.7248931
Ar              5.0605677              0.4720478              0.3305715
Ar             -0.0489678              2.9991707             -2.3746423
Ar              1.9959475             -1.1012107              1.9755752
Ar              0.1744118             -3.7173757              0.2091072
Ar             -2.9952342             -2.5356097             -1.2324376
Ar              0.0947557              1.5595981              3.8523407
Ar              3.3460475             -4.7284651              1.7595306
Ar             -3.0426813              0.9509047             -2.5474464
Ar              1.8729915              2.3470374              0.6338148
Ar             -0.2160157              6.4264305             -3.5844358
Ar              0.1451936             -3.2482053             -3.4776163
Ar             -0.0860780              5.5987965              0.2129056
Ar             -3.2371802              4.7187276             -1.8218376
Ar              3.8973343              1.6756521              3.7381874
Ar              0.3275512             -3.9584379              3.8856814
Ar              0.0555282             -7.1716201              1.2968793
Ar             -6.1613771             -1.1806490             -2.7387750
Ar              5.3430849             -1.8165809              3.3121742
Ar              2.1690823             -1.0358890              5.6601272
Ar             -2.1671152              3.4738314             -5.3109638
Ar             -2.9200639             -4.7995930              1.8565180
Ar              3.2691472             -2.4002683             -1.3423164
Ar             -3.1185074             -1.9251788             -4.9329424
Ar             -4.9342441              0.1378982              0.6087323
Ar             -1.9275280              4.7574797              3.4183063
Ar              1.8946400              4.8786738              3.3460188
Ar             -6.3303704              2.5607393             -2.0124628
Ar             -5.0841043              3.8749673              1.3674149
Ar              2.1520893             -6.0761075             -1.7463042
Ar             -1.5848287             -1.2774849              5.7761371
Ar              1.7687844              3.6365909             -5.4638978
Ar             -1.7496034             -1.2057568              2.0790024
Ar              3.0930357              1.1196352             -2.8063696
Ar             -1.8232270             -6.0650636             -1.8187387
Ar              3.7989658             -4.3496031              5.5564380
Ar              5.0212349              4.2240257              1.1757222
Ar             -5.2346519              1.2610315             -5.5028192
Ar              2.0937292             -7.3807739              4.3462533
Ar              3.0382967              4.9004085             -1.9700348
