42
Energy:            -193.8413
Ar              1.2195434              1.0479274             -0.8387729
Ar              3.6546410             -0.2552189             -3.2061154
Ar             -2.2713188              0.5458099             -1.6463896
Ar             -1.2351966              2.1873389              1.5586316
Ar             -0.6678976             -1.4651556              1.0602185
Ar              1.9517143              0.6104930              2.6765636
Ar              2.9069626             -1.9796126              0.1673096
Ar              0.2872838             -2.0313555             -2.4894988
Ar              0.0548367             -1.9386774              4.6684386
Ar              3.0056937              3.5994701             -2.7182184
Ar             -0.6880332              3.9948019             -1.7366462
Ar              2.6815744             -3.4780049             -4.8994286
Ar              3.7289847             -2.4795099              3.7787488
Ar             -3.2965817             -2.6128028             -3.3757034
Ar             -3.2577926              5.1865841              0.7366978
Ar              5.4620641              0.9419647              3.7622588
Ar              1.0458562             -4.5938477              2.1039362
Ar              2.7325230              0.1730940              6.3225988
Ar              4.6912004             -5.1171709              1.1997311
Ar             -7.6368851             -0.7204590              0.9509464
Ar              2.7742789              3.6100378              4.6887331
Ar             -0.6482487             -5.2204881             -4.2374863
Ar              2.0799685              4.0499215              1.0261274
Ar             -2.6096700             -4.0534505              2.9971515
Ar             -0.5474249              1.7719402              5.2009158
Ar             -5.9103894              0.0174336             -2.4378881
Ar             -3.3352890              0.7499954             -5.1683571
Ar             -0.6804559             -1.8808481             -6.0652179
Ar              6.4511691             -1.7361070              1.1867776
Ar             -1.6174961             -4.6556001             -0.6204347
Ar             -4.3356257              3.4871071             -2.5473209
Ar              0.3358283              1.2987154             -4.3593534
Ar              2.0368876             -5.1901270             -1.5316791
Ar              4.7179168              1.4258409              0.0936180
Ar             -4.8307188              1.7377561              0.7730787
Ar             -1.8229713              4.2242543             -5.2890061
Ar             -4.2143467             -2.0298645              0.2388534
Ar              5.3822926             -3.4367891             -2.1568120
Ar             -0.5097387              5.2160873              3.5349878
Ar             -3.2399797             -0.3407526              3.5002764
Ar             -3.8019976              3.3699063              4.0386964
Ar             -0.0039343              7.0743082              0.2663152
