42
Energy:            -183.4969
Ar              0.6949182              2.1014060             -0.5804365
Ar              2.3218869             -0.6919203             -2.1249224
Ar             -1.5616752             -2.2912044              0.7380631
Ar              0.3241509             -3.8365843             -2.2947875
Ar              1.0311905              5.2240039             -2.5267613
Ar             -1.3873803             -0.4350503             -2.4392267
Ar              2.0235556             -2.6733990              0.8321760
Ar              1.9590125              3.6544026              2.5138647
Ar             -2.5777899              1.3022762              0.7515989
Ar             -2.3037973              3.1690740             -2.5893936
Ar              3.9379927              2.7297229             -2.1866833
Ar              3.5499448             -1.4555531              4.0395545
Ar              0.9760306             -1.7385918             -5.3928713
Ar              4.0914501             -3.3588855             -3.8392613
Ar              0.1565695             -3.2090513              4.0231507
Ar              0.8451508              1.9252010             -4.2615970
Ar              3.8974246              0.6716515              0.9351192
Ar             -1.2997661              4.8960906              0.6844341
Ar             -4.7614356             -1.2029358             -0.8498080
Ar             -2.7001460             -0.6709674              4.0010050
Ar              0.5505572              0.1938079              2.4781978
Ar             -2.5034107             -2.9640552             -4.8175783
Ar             -6.1014554             -2.9895067             -3.8305085
Ar              3.4923366             -5.1521381              3.1056872
Ar             -4.7878015             -3.3280067              2.2075655
Ar              3.6269981             -5.5113765             -0.8007282
Ar             -4.6779641              0.5545473             -4.0468886
Ar              1.5218692              1.3728956              5.7803081
Ar             -5.6746354              2.4630217             -0.9678385
Ar              4.1447980              0.2494299             -5.2088160
Ar              6.0246029             -0.4692081             -2.0337031
Ar              4.9180542              2.0580115              4.2481316
Ar             -1.4659094              2.9352650              3.9659522
Ar             -3.3805964             -4.5744162             -1.5349958
Ar              3.5682059              3.9739050             -5.7054337
Ar             -4.6444020              4.0325737              2.2939612
Ar              1.6269555              1.2208394             -7.8156229
Ar             -5.8711593              0.4229969              2.3196825
Ar              5.6709729             -2.7105402              0.9893206
Ar             -1.8343304              0.4987456             -6.3376412
Ar             -4.9980532             -1.4769956             -7.1999370
Ar              6.9693812              2.5327957             -4.3475926
