42
Energy:            -184.6415
Ar              0.6433628              0.2612599              1.6881359
Ar              0.4553858             -1.4696339             -1.5370380
Ar              0.6059479              5.2739388             -0.8974038
Ar             -2.2960976             -1.6951675              0.7748697
Ar              0.7533424             -3.6056353              1.6347011
Ar              0.1735364              3.7903105              2.4977265
Ar             -1.1114081              1.9360283             -1.2635362
Ar              3.6620007              4.7384716              1.0629861
Ar              3.5727947             -1.4660255              0.3134098
Ar              2.5503213              1.7920966             -1.1637618
Ar             -5.6635715             -0.2735328              0.2341397
Ar             -2.8173932              1.6103309              2.0165865
Ar             -3.0789374             -0.9216007             -2.6885336
Ar              0.5386869             -0.0277563             -4.8494509
Ar              1.1920914              1.2463095              5.1912987
Ar              6.2253910             -3.5552758             -1.1100341
Ar              2.9251314             -1.8515825              4.0395347
Ar             -2.3961897              5.3039419             -3.1980239
Ar             -4.5952192             -1.3070796              3.6860575
Ar              3.9516114              4.9627251             -2.6853136
Ar              0.4212710             -3.7614959             -4.4354808
Ar             -3.4351440              4.6506432              4.0964398
Ar              2.5369982             -4.7031669             -1.4221231
Ar             -2.8088647             -4.7950240              2.5459029
Ar              0.7578496              3.5532143             -4.1301039
Ar              3.1552507              4.4204693              4.7722141
Ar              3.6441202             -1.7419828             -3.4112710
Ar              3.9742658              1.7254384             -4.6679649
Ar             -0.9561923             -1.7793656              4.3449478
Ar             -1.3072686             -4.7603399             -1.1889887
Ar             -4.8970933             -3.8280200             -0.7516237
Ar             -4.6810165              2.5933170             -1.8314683
Ar              4.3180056             -4.7518440              1.9715531
Ar             -2.8465472              4.9609771              0.4556882
Ar             -3.3575301             -4.2650784             -4.2842932
Ar              4.0329778              1.4234562              2.5997460
Ar              6.4747258             -1.6395055              2.5416685
Ar             -2.5320106              1.3519731              5.6814608
Ar             -2.5879591              2.0011529             -4.9173829
Ar             -0.3596318              4.4904332              6.2050730
Ar              3.3200929              5.0235563             -6.4439763
Ar             -6.0857418              3.2667617              1.6559592
