42
Energy:            -192.9929
Ar             -1.4879228              0.7257742              0.1617020
Ar              0.5685000              1.2375675             -2.7615745
Ar             -0.8625943             -2.1203990             -1.9748568
Ar             -0.9464524             -2.4867225              1.7383969
Ar              1.8910222             -0.7144539              0.1163141
Ar              0.3956920              0.6503967              3.2418718
Ar              1.3368721              2.9516450              0.4613975
Ar              3.8502769             -0.7959575              3.2740944
Ar             -4.8612345              2.1038144              0.1798875
Ar             -3.2170132              0.7224672             -3.0355003
Ar             -4.1659640             -1.6849178             -0.0980432
Ar              3.3058086              2.9583143              3.6346435
Ar              2.5738847             -3.6329557             -2.0682387
Ar              3.4817993              3.5627091             -2.5329687
Ar             -3.6187262             -5.0464443              1.4671909
Ar              2.6815636              1.7923805             -5.8134536
Ar              0.0461225              3.5000298              5.5619376
Ar             -5.8439109             -1.9386420             -3.4265129
Ar              4.8139706              1.5607338              0.4248478
Ar             -2.5335492             -2.2549683             -5.2628660
Ar             -3.4829146             -4.6861010             -2.3461015
Ar              2.3335525              0.5904734              6.4586204
Ar              4.2561379              5.2930053              0.7736187
Ar             -1.4325325             -0.0009684              6.3909083
Ar              1.2387550             -1.6494815             -5.0292461
Ar              0.3260453              4.4892114             -4.4982337
Ar             -3.4143201              0.1141875              3.1971739
Ar              0.9531981             -2.6252865              4.9477083
Ar             -0.3091319             -5.4725867             -0.4075113
Ar              1.0213192              5.8747673              2.6954366
Ar             -6.7910235             -4.3152014             -0.5487692
Ar              5.3558101             -2.1807498              0.0727796
Ar             -1.9514987              3.5697233              2.3573002
Ar             -1.0762408              1.2079166             -6.0789990
Ar              1.1211545              6.2596484             -1.1725302
Ar              4.0288675             -0.1933132             -2.8789864
Ar             -2.8345514             -3.2312779              4.8218850
Ar              2.4749168             -4.0096744              1.7372521
Ar             -0.4225505             -5.8173005              3.3870242
Ar             -2.1379945              6.4923322              4.7130231
Ar             -0.2011948             -5.0754028             -4.2026356
Ar             -1.8473987              3.9629053             -1.4674109
