42
Energy:            -188.5705
Ar              0.2797220              0.1957170              0.7382591
Ar             -0.0628239              3.6799441              0.6929027
Ar              0.7716285             -3.3422234              0.7371380
Ar              3.3216493              2.0009422             -0.1174329
Ar             -2.4868602             -1.9202776              1.2902260
Ar             -1.1159304             -1.7570530             -2.1420704
Ar             -2.9894109              1.4020273             -0.5144967
Ar             -2.2028590              1.3300630              3.0789630
Ar              3.3748251             -1.0369036              2.1656242
Ar              0.2080124              5.8124963              3.6692791
Ar              2.5387011             -1.2516578             -1.5797265
Ar              1.2403413             -6.8913722              0.5472864
Ar              1.3379683             -4.5838165             -2.7257426
Ar             -4.8027859             -1.8595806             -1.5407063
Ar              2.1267528              4.8667714             -2.1725827
Ar             -2.9374898              0.7910652             -4.1715954
Ar             -5.2628178              3.1893925              1.9943707
Ar             -3.5865170             -2.1279880              4.7376681
Ar              5.9944116             -0.7290443             -0.5259453
Ar              5.2264224              2.1235316              3.0385323
Ar              4.0176149              1.2929254             -3.7417318
Ar              1.4856586              2.0520541              3.6530419
Ar              1.2850438             -1.2412812             -5.0048761
Ar              3.2452284              5.2288410              1.5765550
Ar              6.4184959             -3.0561753              2.6138808
Ar             -3.0302540              4.3803092              4.9137627
Ar             -2.1601977             -5.0824174             -0.6908371
Ar             -5.1118052             -4.3459238              1.7837573
Ar              0.1400848             -1.5943208              4.0173065
Ar             -5.7202426             -0.4766741              1.9599689
Ar              0.2136267              3.7457202              6.7813419
Ar              0.3654475              7.3081776              0.0834349
Ar             -5.1841659              1.2645968              5.3117699
Ar             -1.6384537              0.5398769              6.6056475
Ar              3.5406429              4.7406087              5.2818834
Ar             -2.8770320              5.9144211              1.3664993
Ar             -1.9231780              4.6480973             -2.2825504
Ar              0.3656398              1.6513162             -2.6143527
Ar              2.8069444             -4.5548797              3.4765904
Ar              4.2218011             -4.2389951             -0.1858062
Ar              4.8245012             -2.8291127             -3.8490027
Ar             -1.4358332             -5.0082994              3.1434141
