42
Energy:            -192.0137
Ar             -0.2167506              0.3056937              2.6282647
Ar              0.4771770              3.4134981              4.3971634
Ar             -2.6753651              0.4973728             -0.0358127
Ar             -0.9146613             -2.7039040              0.7171479
Ar              0.9497199              0.1311967             -0.8400649
Ar              2.5354833             -1.8927391              1.8357951
Ar              2.9513621              1.8534026              1.8603579
Ar             -0.3064443              3.3048964              0.6245518
Ar              3.8077345             -2.1011988             -1.6796362
Ar             -1.4866395              0.4113751              6.0394288
Ar             -3.3821001             -1.3097326              3.1930583
Ar              0.4009113              6.5379546              2.2637117
Ar              5.8263876             -0.3520295              1.0277973
Ar             -2.8331768              3.5822443             -2.1229374
Ar             -4.1547240             -4.4294622              1.2093060
Ar              5.2051253             -2.2386799              4.3488181
Ar              4.1827807              1.7141043             -1.7033191
Ar              5.4182135             -4.1637483              1.0505512
Ar              6.1943327              3.4662777              1.0089614
Ar             -5.2248276              0.7011787             -2.7929392
Ar              2.1583560             -0.0436686             -4.4028769
Ar              2.7713596             -5.1497777              3.6034512
Ar             -0.4159318              6.4411685             -1.4466485
Ar             -0.0575910             -2.8327597              4.4710393
Ar              1.9018965             -5.0169448             -0.1086823
Ar             -3.4342667             -2.5687102             -2.0362637
Ar             -5.5878198              2.7225784              0.4096216
Ar             -3.1683281              5.6261037              1.0728992
Ar              8.5161950             -2.5364526              2.5199890
Ar             -6.6588835             -3.0033162              3.7008796
Ar             -3.0468555              2.5341893              3.1941242
Ar              2.8987919              4.9779335             -0.2428609
Ar              2.3698007              0.0992438              5.1839652
Ar             -5.9577326             -1.1569635              0.4373754
Ar             -6.3875151              0.8429079              3.6208146
Ar              0.2658840             -2.9376419             -2.8315556
Ar              3.7261918              5.1132133              3.4576869
Ar             -0.7922606             -5.9530327              2.4572968
Ar             -1.6286014             -5.8247410             -1.2566020
Ar             -1.5371267              0.3297191             -3.6020035
Ar              0.8750259              3.2057402             -2.9316358
Ar             -3.3616949             -4.6054215              4.9097366
