42
Energy:            -190.7182
Ar             -0.3376337             -0.3047953              1.6831610
Ar             -0.8559393             -1.0035440              5.2105698
Ar              1.2320630             -2.8707315             -0.3382999
Ar              3.0385926              0.2775816              0.4919269
Ar              0.1768896              0.3554677             -1.8821275
Ar             -1.8984885              2.4031504              3.5411396
Ar             -2.8790888              1.6082714             -0.0632515
Ar             -2.3936614             -2.0654904             -0.7125186
Ar             -3.8142692             -0.8361286              2.6598239
Ar              2.3079678             -2.2256456              3.2921209
Ar             -5.9270899             -2.7237650              0.1443396
Ar             -0.9449475              5.8942452              2.4881574
Ar              3.6399658              0.9664239             -3.1363411
Ar             -4.7315586             -4.4388103              3.3043737
Ar              2.8478883             -5.5313496             -2.4432733
Ar              4.0323744              3.7250231             -0.5096234
Ar             -0.2062541              2.4069459              6.8779705
Ar             -5.4273314              3.6171262             -1.9064190
Ar              5.7973207             -1.6609830              2.0275880
Ar              5.3735042              2.1385301              2.6925770
Ar             -4.3917917              4.5292501              1.6655478
Ar             -1.9575121              5.0910328             -1.1999716
Ar              4.7163070             -2.3352876             -1.5817214
Ar              0.4230673             -6.4126956              0.3532185
Ar             -0.8478786             -4.7250551             -2.8290605
Ar             -2.3860441              2.2846091             -3.7004282
Ar              1.7775034             -2.2372728             -4.0021037
Ar             -3.2895070             -5.5918327             -0.0224875
Ar              1.8844199              1.5036135              3.9146826
Ar             -1.1696255             -3.7325097              2.4816117
Ar              1.4745224              6.5356901             -0.3672938
Ar              3.9394357             -4.8914380              1.1488865
Ar              0.6927191              1.0847626             -5.5441653
Ar              2.7861783              4.9876114              2.8793771
Ar             -1.9272000             -1.4206990             -4.3825150
Ar             -5.0348174             -0.1602442             -2.5478569
Ar              1.1296009              3.7791613             -2.9270991
Ar              0.5350635              3.0432852              0.6683441
Ar              6.5509375              0.8816541             -0.7082262
Ar             -4.5409555             -3.8941262             -3.1972460
Ar             -0.7206544              4.6631784             -6.0432244
Ar              1.5484966             -5.8469264              3.9308541
