42
Energy:            -185.4641
Ar             -0.4586806             -0.0578966             -0.0906237
Ar              0.1502190             -1.0434804              3.5182689
Ar              2.0968998              2.1878502             -1.2522060
Ar             -2.7153236             -2.4912612              1.5259919
Ar              0.9291297              2.4042014              2.3047436
Ar              3.2116034             -2.8493560              4.5117454
Ar              1.6600579              5.5136073              0.3387509
Ar             -1.4456860              3.4598995             -0.3195552
Ar             -2.6434042              1.0923518              2.4552581
Ar              2.0410295             -1.2788741             -2.6793922
Ar              5.1066235              1.9639284              0.8948298
Ar              0.5296429             -3.4946577             -0.2317304
Ar             -2.5667501             -5.5506923             -0.5888283
Ar              3.2366506             -4.9699908             -2.4142454
Ar             -0.3187768             -1.6156510             -5.5493123
Ar              2.8446555             -0.9024473              1.0275055
Ar             -4.0019041              0.7598411             -1.0049465
Ar              0.1750873             -4.8058505              3.1159777
Ar             -1.8014980              1.0585634              6.0280566
Ar              2.2017051              1.6571264             -5.0206736
Ar              1.5241774             -0.4300704              6.9644983
Ar             -1.9931285              4.2748284              4.0092949
Ar             -5.9914064             -0.3160367              1.9969203
Ar              1.2511997              3.2682570              5.8612238
Ar             -1.0863053              1.3298007             -3.3824996
Ar             -2.1691609             -2.2348945             -2.3807295
Ar              0.9746638             -7.0887355             -0.1138763
Ar             -0.2340437             -5.0871745             -3.5987322
Ar              5.4547899             -2.3313986             -1.1371115
Ar             -5.5254340             -2.7395283             -0.9596157
Ar              3.8920477              4.4908081              3.3192710
Ar              0.8740235              6.5613872              3.8653513
Ar              3.6998678             -4.6086416              1.3117495
Ar             -5.2301456              2.3290046              4.7768693
Ar             -4.2301152             -0.2780186             -4.6994249
Ar              5.2145881              0.9623154             -2.7858673
Ar              6.1618996             -1.5065904              2.4796375
Ar             -1.8956204              6.7635546              1.2245756
Ar              3.6929437              0.8386187              4.2132783
Ar             -4.7730832              3.8664936              1.3015093
Ar              0.4624947              4.7935546             -3.2994009
Ar              8.1283273              0.1710495             -0.3708286
