42
Energy:            -189.2036
Ar              1.1512299             -0.4903584             -0.4739963
Ar             -1.7287025             -0.6001327             -2.6399911
Ar             -1.2526143              2.2311359             -0.3070582
Ar              0.9849621             -2.7623378              2.3141772
Ar              3.9332349             -0.3241197              1.8740814
Ar             -0.3205400             -3.7206666             -1.0924801
Ar              1.9258869             -6.6732819             -1.0275508
Ar             -2.0640313              3.6603709              3.0268487
Ar             -2.1304206             -1.1383562              1.0387258
Ar              2.3772605              2.7915459              0.2781361
Ar             -0.0214492              5.6407082              0.4359353
Ar              3.5053253             -3.2686392             -0.5419398
Ar             -4.6942438             -0.7329363             -4.9360406
Ar              4.4106432              0.3096656             -1.8901215
Ar             -3.6762343             -4.4568790              0.4351014
Ar              5.1695305              3.1273580              2.7082421
Ar              0.8251942             -5.1146294              5.2396433
Ar              3.2748231             -5.6559826              2.3868392
Ar              1.6738882              4.2752539              3.6221253
Ar              1.7489950             -1.9493640             -3.7568715
Ar              2.4116630              5.3045656             -2.4517202
Ar             -4.2246487              2.1917447             -2.5478427
Ar              0.3883923              0.8897190              2.8049607
Ar             -3.3045500             -3.9168467             -3.3253095
Ar             -1.2798365             -2.0390027             -6.0098855
Ar             -1.8525505             -7.0636599             -1.6529965
Ar              0.2474159             -1.3812718              5.7309443
Ar             -0.7895364              7.1122588              3.8039833
Ar             -5.4758708             -1.8342434              2.5495162
Ar             -2.3359130             -3.4969905              3.8984143
Ar             -0.3758004              2.3619774              6.1605075
Ar              3.1413572              1.1175274              5.2627513
Ar             -0.5312396             -6.1165401              1.8114190
Ar             -1.8494624              1.7627938             -5.4960253
Ar             -1.3182953              4.6768731             -3.0639446
Ar             -3.7049690              5.0739495             -0.0960549
Ar              3.7235989             -2.6549257              4.8094041
Ar              5.6713910              3.7881588             -1.0553846
Ar              1.1738090              1.8454495             -3.2669928
Ar             -4.6412563              1.6124025              1.1797632
Ar             -5.1056423             -1.3053472             -1.2099032
Ar              3.6463335              6.2425037              1.0667636
