42
Energy:            -187.9219
Ar              0.7555274              0.2749501             -1.0157824
Ar             -2.5598459              0.0384474             -2.8996346
Ar             -2.0170108             -1.6743061              0.4336254
Ar              2.9842288              1.2338193              1.8116660
Ar              3.8723445             -1.7103901             -0.5297582
Ar             -2.6248438              1.8601308              0.2203788
Ar              1.2683581             -2.0416457              2.1505456
Ar             -0.6962080              3.3553475             -2.4132605
Ar             -1.1224684             -3.1176766             -4.2534305
Ar              0.4131069              0.3203767             -4.9130565
Ar             -0.7001727              0.8104709              3.0543454
Ar              2.8249554              3.5852843             -1.2665847
Ar              0.7057819             -3.6186665             -1.1267773
Ar             -1.0517151             -5.1157641              1.7728702
Ar              4.1238816             -2.9749832              4.3622907
Ar             -2.9676218              3.7538691              3.3952307
Ar             -2.9468300             -4.7697899             -1.3922357
Ar              1.6018417              3.0958757              4.7808265
Ar              0.2182930              3.8943315              1.2833349
Ar              1.8728017              3.7605647             -5.0092283
Ar             -2.0346419             -2.4569043              4.1644567
Ar              2.6355635             -2.6548979             -4.0974463
Ar             -2.4716422              2.7322973             -5.5907437
Ar              3.6596751              4.9631736              2.1426590
Ar              2.9213817             -5.2164745              1.4898507
Ar             -5.8024899              0.7193010             -4.7921732
Ar             -5.4882204             -0.3785619             -0.7314719
Ar             -4.5932781              3.2767352             -2.4945465
Ar             -5.9557850              3.1320640              1.0353687
Ar              1.1472904             -0.9388051              5.7202104
Ar              4.4590026              0.6730884              5.2260571
Ar             -4.8591262             -3.5302506              1.7091415
Ar             -2.9069856              5.5429636             -0.0440529
Ar             -2.8952986             -0.8592982             -6.5799288
Ar             -4.4434683              0.1211530              2.8991760
Ar              5.9058278              1.6282836             -0.5278167
Ar              6.2233221             -0.8635716              2.2201834
Ar              6.5266810              2.7947427              2.9782560
Ar             -4.8966128             -2.7216601             -3.7594228
Ar              3.7610860              0.7857969             -3.4292495
Ar             -2.5895369              6.1762824             -3.8655854
Ar              0.9078812             -4.6965910              4.8904649
