42
Energy:            -191.4784
Ar              0.5337924             -1.0593439              0.6605045
Ar             -2.5978705             -0.4207154              2.2707876
Ar             -2.3837597             -0.7741016             -1.4557169
Ar             -0.9469306              2.2399733              0.2401123
Ar              3.6025781             -1.4012521             -1.0966443
Ar              2.7286188              1.8213144              0.4471188
Ar              0.6563725              1.1586704              3.5355742
Ar             -1.7854854             -3.8327096              0.7279569
Ar             -2.6568874              1.8645814              5.1876506
Ar             -5.1117531             -3.1419278              2.3692467
Ar              1.2918241              2.2895094             -5.8929865
Ar             -3.9573585              2.5919956             -1.9144882
Ar              1.2926944              5.2245848              0.0219378
Ar              5.0684353              4.7341013              0.2218083
Ar             -4.8650369             -3.5134832             -1.4211656
Ar              6.7661830             -2.1639398             -2.7757973
Ar             -2.5910095             -2.8424444             -4.5135586
Ar              3.9041375             -4.7990299             -2.4441401
Ar             -0.0691325             -0.3647835              6.8593243
Ar              3.5381396             -1.2476296              2.7236285
Ar             -2.0887123              0.9270354             -4.7880357
Ar              3.1914307              3.5062089             -2.8435067
Ar             -5.6717463             -0.1009262              0.1543770
Ar             -3.2563274             -1.9461802              5.5592820
Ar             -2.5237046             -5.3457595              4.0603991
Ar              0.4769828             -3.1579598             -2.3305679
Ar              5.8297779              1.7171276              2.4421685
Ar             -2.4757504              5.6401396             -0.1799054
Ar              0.1053076             -2.6600144              3.8834668
Ar              2.9117553              4.1477760              3.3229350
Ar              4.0816378              0.1088328             -4.4362351
Ar              5.8455198             -3.6266979              0.7437437
Ar             -4.1922763              2.9580151              1.8852946
Ar             -5.8920211              0.2529936              3.9349907
Ar             -2.0539022             -5.9136583             -2.3585963
Ar             -0.8959302              4.5521612              3.1217764
Ar              2.0661112             -4.3644293              0.9275962
Ar              0.7995552             -1.4783797             -5.6405490
Ar              6.0076071              1.3855156             -1.3725615
Ar              0.8716277              0.6117290             -2.5716958
Ar             -5.4314151             -0.4635946             -3.6262347
Ar             -0.5975014              3.9915605             -3.0495644
