42
Energy:            -184.7670
Ar              0.8080939             -0.7794309             -0.1152614
Ar              3.6403272              0.6089685             -2.0671642
Ar             -2.4285775             -1.0915244              1.9253121
Ar             -2.4245442             -1.7857040             -1.5904073
Ar              3.9919255             -0.1080937              1.6652518
Ar             -0.3697687              2.2249688             -1.7827762
Ar              1.9590225              1.9305356              4.1618437
Ar              3.8918851             -2.8681204             -0.8042799
Ar              1.0406364             -1.6449205              3.4478603
Ar             -3.7298651              1.5708949             -0.5760345
Ar              4.1652664             -3.6618694              2.8140067
Ar             -4.4149100              1.9027961              3.0521015
Ar              2.3395844              2.9387034              0.4911869
Ar             -5.9340883             -1.0789539              0.7031964
Ar              0.7272486             -3.8804112             -2.4367328
Ar             -0.5321571             -4.0594171              1.0237186
Ar             -0.8395546              2.0568880              1.8626604
Ar              4.1931438              4.8357319              3.1836824
Ar              3.6297700             -2.3234146             -4.5083806
Ar              2.7293081              4.0265380             -3.1096525
Ar             -2.0188447             -3.1473169             -4.9880747
Ar             -1.9626085             -3.5859249              4.6083023
Ar              3.6652628              6.2998234             -0.2109951
Ar              2.4468734             -6.1015929              0.3727222
Ar             -3.0615539              4.4442978             -2.9628807
Ar              1.1742951             -5.5364526              3.9816375
Ar              5.9591855              2.8840146              0.3525596
Ar              0.0409819              5.8330108             -1.2633169
Ar             -2.6201613             -5.4834518             -1.7996325
Ar             -1.8371331              4.0870830              4.7803489
Ar             -2.9048337              4.9135554              0.9431078
Ar             -3.0177216              0.7909352             -4.2099473
Ar              3.1550952              1.3146963             -5.7315460
Ar             -4.2110203             -4.3053506              1.5320277
Ar             -0.2120913              3.0883998             -5.3346928
Ar              0.4578770             -0.5283696             -3.9312557
Ar              3.8591433             -5.8587835             -3.1402357
Ar             -5.1098180             -1.5654433              4.4089894
Ar              0.6060414              5.5545456              2.3882827
Ar             -1.6040035              0.3428477              5.2068905
Ar              1.6204782              5.1595122              5.9975242
Ar              5.8266585              1.7011084              4.2804383
