42
Energy:            -191.5836
Ar             -0.9294593             -0.1896358             -1.6973309
Ar             -7.1610669             -0.0773031             -2.3696455
Ar              2.1051111              1.6850458             -1.1097524
Ar              2.0960017             -2.0391650             -0.9845502
Ar              0.4187013             -0.1206694              1.7107046
Ar             -4.0036251             -2.0856592             -2.1096090
Ar             -3.2479587             -0.0891589              1.0699861
Ar             -1.1624947              2.8873891              0.2100184
Ar             -3.9292321              1.8140245             -2.1941533
Ar              1.5608338             -0.3209924             -4.3426245
Ar             -4.1954073              4.9774817             -0.1902737
Ar             -6.4177434             -1.9639020              0.8302405
Ar              1.9341399              4.8768135              0.8377104
Ar             -2.2743108             -0.2239762             -5.0720059
Ar              4.7474221              1.6488189             -3.6841521
Ar             -1.5777379             -6.2444051              2.4189044
Ar              0.1276411             -3.1529217              3.8239689
Ar             -1.9224038             -0.0083000              4.5883868
Ar             -5.6543548              0.0339016              3.9623110
Ar              4.7487244             -2.1683550             -3.5782067
Ar              2.5938815             -5.2690908             -2.7046402
Ar             -1.4170704              6.0936100              2.1600000
Ar              1.8083793             -0.0440156              5.2091785
Ar             -3.6232294             -3.1080059              3.2171928
Ar              5.2548950             -0.1737189             -0.3736951
Ar              2.6335962              4.8611102             -2.9154930
Ar             -0.7505538              6.0961611             -1.5946254
Ar              2.1680472              2.9171131             -6.1414284
Ar             -0.5984724             -3.3906979             -3.4265786
Ar              7.2866155             -1.9927989              2.1940296
Ar             -0.5485857              2.9100265             -3.5675873
Ar             -3.5453457              3.0703838              3.0688147
Ar             -4.4176428             -5.1121591              0.0959674
Ar              3.5302444              1.7884827              2.3421454
Ar              5.2765391              3.6149372             -0.4698354
Ar              3.5056514             -2.0330820              2.4692743
Ar              0.2074509              3.0308789              3.6914860
Ar              1.8501289             -5.1508284              1.0708534
Ar             -6.3272698              1.9342135              0.7319292
Ar             -1.2362484             -3.1946495              0.3094928
Ar              5.5828140             -0.0036488              4.9068117
Ar              5.2256246             -3.9928932             -0.2751469
