42
Energy:            -186.2605
Ar              0.7579699              0.4050894              0.1762831
Ar              2.8261022             -1.5001626              2.4712401
Ar             -2.6141480              0.7105441              1.3700573
Ar              2.2353994             -1.2941136             -2.6211140
Ar             -0.7201847              3.7729750              0.3265151
Ar              0.8178697             -3.3622503              0.1122228
Ar             -1.7689455              1.9539293             -2.5080879
Ar             -1.3693759             -1.5394997             -2.1256204
Ar             -0.7169840             -1.7779799              3.1391208
Ar             -2.7422252              3.9909825              3.3912599
Ar              0.2464150              0.3064957             -5.2372492
Ar              4.4868605              0.5191403             -0.2507595
Ar              0.5628982              2.0615675              3.3719253
Ar              1.0764249             -4.0851802              5.3922691
Ar             -4.8075662             -0.0858737             -1.4455297
Ar              2.9101114             -2.4945717             -5.9999947
Ar             -2.5356675              5.6099772             -2.5556195
Ar              4.5311305             -3.2708393             -0.4273977
Ar             -0.1891614              4.1297874             -5.0783043
Ar             -5.7247229              1.7222192              3.0544988
Ar             -0.7116577             -3.4111009             -5.1373928
Ar              2.0221978              2.4310199             -2.5888019
Ar              2.1674698             -4.9305457             -3.0481626
Ar              5.7891717             -1.3166153             -3.4518802
Ar             -2.5385234              6.9007884              0.9811641
Ar              4.6607478             -2.8434450              5.3277898
Ar              0.6134148              5.8686559              3.0300211
Ar             -0.9364243             -5.5229913              2.4803520
Ar             -4.4429238              3.5597186             -0.0778418
Ar             -5.0581280              2.9516772             -3.8017269
Ar              4.3401570              1.5762191              3.6285644
Ar             -1.4271829             -5.4280350             -1.8996979
Ar              2.8988493              3.6991983              0.8507917
Ar             -2.3316531              0.8027349              5.2995193
Ar             -4.4809795             -1.7821681              3.7189618
Ar             -3.1610772             -3.0972236              0.5574037
Ar              3.0698513             -5.2140346              2.4655632
Ar              6.5103909             -1.4155596              2.2902005
Ar             -4.3542978             -3.4713069             -3.1524381
Ar              1.1700933              6.0185257             -1.8409548
Ar              1.6566098             -0.4103358              5.8532105
Ar             -3.4259470             -0.3309167             -5.0179657
