42
Energy:            -188.7395
Ar              0.3685316              1.3059943             -0.9321008
Ar              3.6724098             -0.0320305             -1.3535631
Ar             -1.1394064              1.3244180              2.3193235
Ar              0.5542863             -2.1160635             -1.9259610
Ar             -2.9054965              2.7820315             -0.5902157
Ar              3.1985375             -3.1314689              0.5318972
Ar             -2.6940089             -0.8230783             -0.1751891
Ar             -0.0494667             -2.2512390              1.8482851
Ar              2.3883629              0.5131211              2.1323873
Ar             -2.1006686              4.7623853              2.9106741
Ar             -2.7157947             -3.5698479             -2.6777474
Ar              1.5790622              0.7521690             -4.4067975
Ar              1.2734059              4.1177924              1.1540237
Ar              5.8655213             -0.8000642              1.6495047
Ar             -3.3561746             -1.2744076              3.5746160
Ar              0.4357094             -5.3694538             -3.9962700
Ar             -6.5843057              2.1260185             -0.7172864
Ar              3.2940508             -2.6312396             -4.2733010
Ar             -5.4333798             -0.8146191             -2.7124701
Ar             -2.7972511             -1.5554748              7.2577785
Ar              0.0115460             -5.3503697             -0.3106414
Ar             -2.0125477              0.2681715             -3.5789262
Ar              3.5738643             -5.6719221             -2.0385052
Ar             -0.3120927             -2.2137320             -5.6823819
Ar             -5.1117292              5.4165497              0.6821618
Ar              7.2875473              0.9483430             -1.3935778
Ar             -1.4127630              6.1388716             -0.5718852
Ar              3.3122425             -2.4063520              4.1914140
Ar             -4.7868718              2.0147048              2.5372684
Ar             -6.1242944             -1.2870887              1.0235738
Ar              2.9984147              3.5429586             -2.3358910
Ar              1.6558113             -5.5295826              2.9979766
Ar             -0.6879482              3.7846498             -3.4817500
Ar              1.0132051              3.0491223              4.7503721
Ar             -2.5955055              1.9417051              5.6399037
Ar              0.1781766             -0.6316265              5.1732790
Ar              6.1543240             -2.7089773             -1.7998574
Ar              5.3309036              0.5754899             -4.5827886
Ar             -1.3448462             -4.1467658              4.7698231
Ar             -4.5887306              2.9400159             -3.8589839
Ar              4.8921141              2.8627647              0.8237722
Ar             -3.2364513             -4.1945457              1.2139118
