42
Energy:            -189.6540
Ar             -0.6731744             -1.3836942              2.8552599
Ar              2.9528517             -1.3945912              2.5900698
Ar              1.1410087              1.0186869              0.6351125
Ar              1.3536647              1.3682355              4.4116668
Ar             -1.0587242             -3.8078192             -3.2038624
Ar             -2.5828294              1.0502189              0.8789794
Ar              0.9938191             -2.5694309             -0.2493854
Ar             -0.5796138              3.8490997              2.3389436
Ar             -2.4593913             -4.6084619              3.1359143
Ar              2.7043470              4.8302669              3.8300131
Ar             -2.7109565             -2.5748676             -0.0436822
Ar             -5.7965739             -4.2120071              1.2872539
Ar              2.1285398             -1.7826474             -3.7181626
Ar              4.4366285              1.9399267              2.1454901
Ar             -0.3672108              4.2963836              6.0608001
Ar             -3.6201012              4.9889352              4.1513514
Ar              2.2069826              1.8985932             -2.8488766
Ar             -5.8165110             -0.4785037             -0.2433568
Ar              1.4901948             -2.1666819              5.8733891
Ar              2.4473648              4.4776205              0.0778950
Ar             -0.7709036             -5.8378187             -0.0080411
Ar             -3.8038977              4.6316718              0.3886096
Ar             -0.9943024              2.6702177             -4.8710912
Ar             -4.0503093              2.0799130             -2.4640487
Ar              1.2993325             -4.6562716              2.9346686
Ar              4.7631126             -3.8650464              4.5451240
Ar              4.7652132             -0.0363435              5.4502101
Ar              5.5207678              2.8478524             -1.3413576
Ar             -0.6256873              6.8011772             -0.0627683
Ar             -0.7962634              3.3552908             -1.2860759
Ar             -5.6529445              2.1829173              2.5972615
Ar              4.3606863             -4.1682350              0.6573742
Ar             -2.7701644              5.7341130             -3.1945801
Ar             -4.4082730             -1.3060715              3.1238821
Ar              2.3014732             -5.3566209             -2.2916130
Ar             -5.5451550             -4.1650898              5.2148436
Ar              1.1701208              5.5957786             -3.3774424
Ar             -2.4020631              1.4347958              4.6253205
Ar             -0.9765617             -0.1608038             -2.3127527
Ar              6.5697577             -1.2851433              2.1730251
Ar              4.2050208             -0.6274315             -0.7967428
Ar             -2.3054430             -2.1580826              6.0982582
