42
Energy:            -184.5500
Ar              1.4679081             -0.5291096             -0.0473686
Ar             -1.3481227             -1.0432727              2.3604838
Ar             -1.1711192              1.6549805             -1.3510120
Ar             -0.5893579             -1.4656207             -3.0051000
Ar              1.9488721              3.2280780             -0.0399045
Ar             -3.4157613             -1.5222891             -0.5559839
Ar              2.2687048             -1.1590541              3.4423091
Ar             -0.6540370              2.4171132              2.3074796
Ar              2.0761088              1.2903187             -3.2295543
Ar             -3.9231836              0.3145599             -3.7102547
Ar             -4.0673733              2.1922630              0.7670161
Ar              4.6391844              0.8928609              1.2699437
Ar             -3.6643279             -3.4032721             -4.0074091
Ar              4.7441217             -0.9354686             -2.1562357
Ar             -0.9386121              1.8204392             -5.2212455
Ar              0.7799225             -3.9314217              1.4570824
Ar             -0.2673606             -3.5579414              4.9827264
Ar             -0.2829256              0.2496071              5.6841603
Ar             -3.5168956              1.6864269              4.4929821
Ar              0.9842656              5.7300126              2.5994702
Ar              2.3369739             -1.8392631             -5.2441892
Ar              3.2826625             -4.7030447              4.1332816
Ar              2.1789372             -3.6592900             -1.9260693
Ar              5.1827377              2.9302279             -1.8139489
Ar              2.5643250              2.4238986              3.9807991
Ar              0.4672020              4.6528358             -3.2034995
Ar              3.5837185             -5.4686432             -4.8132060
Ar             -1.4717151             -1.6144728             -6.5773318
Ar             -1.5157975              5.1350685             -0.1159287
Ar             -2.9210134             -4.3566580              2.1783354
Ar              2.5342642             -2.0583743              7.0106942
Ar             -2.9826444              5.1962853              3.2631808
Ar              4.4274473             -2.8608599              0.9957937
Ar             -3.6310839             -1.9802704              5.1513941
Ar             -0.3766307              4.0093018              5.7093003
Ar             -0.1392411             -4.6945659             -4.8411739
Ar              3.3934466             -6.4065055              0.5344311
Ar             -1.4652296             -4.6927145             -1.3063357
Ar             -3.3850474              3.9975779             -3.1513755
Ar              1.1324359             -7.2292381             -2.3606877
Ar              3.2370141              5.7024190              5.5708102
Ar              4.6952980              4.7158976              1.9390068
