42
Energy:            -186.7406
Ar             -1.8587830             -0.6408589              0.8431025
Ar             -2.0203992             -4.1238577              1.9717682
Ar             -0.0343432              1.5970506              3.1786239
Ar             -1.2055211              2.8640747             -0.1290256
Ar              2.5381095             -0.8663308             -3.0499179
Ar              1.5945443              0.5033169              0.0991096
Ar              0.5286621              0.4952152             -5.9340077
Ar             -0.3069623              3.5234481             -3.6827526
Ar             -1.0254048              0.0585998             -2.5967018
Ar              0.3850135             -2.9331179             -0.8210468
Ar              1.0111154             -1.9633026              2.7378005
Ar             -5.2270348             -1.4463247              2.0144386
Ar             -3.7201082              2.0018266              2.5211995
Ar              0.9806696             -5.5229583              3.7569259
Ar              2.8487398              0.2353446              5.1324940
Ar             -3.1248390              5.5701137              1.5107064
Ar              5.5129103             -2.3492612             -1.4076144
Ar              1.8423474              3.8623426              5.5468216
Ar              3.9471953             -3.3678772              4.6452724
Ar              3.1926573             -2.4700837             -6.2585130
Ar              0.6010658              5.1621333              2.1992219
Ar             -0.4668400              1.1113384              6.8157164
Ar             -3.4117557              1.7708159             -4.8186337
Ar              0.6032489             -2.5934224              6.3540357
Ar             -0.5376868              6.4260893             -1.2085263
Ar              4.5336266             -0.8529568              1.9070555
Ar             -5.5741525              4.6836797              4.3421457
Ar              2.2836647              3.9691399             -0.9523409
Ar             -2.2999010             -1.1656011              4.4401859
Ar              3.3548552             -4.2944991              0.9686983
Ar              2.2351625              6.2675682             -3.9046060
Ar              3.2609915              2.5629797             -4.2926686
Ar              5.8496856             -0.2181386             -4.5527070
Ar             -1.8675288              4.2776981              4.9326095
Ar             -4.1933473              1.5737341              6.1888472
Ar              2.9085606             -4.6394100             -2.9093290
Ar              3.5248267              2.7295043              2.3471092
Ar              0.4449943             -6.4962341              0.0809927
Ar             -3.6921576              4.6179166             -2.2381098
Ar              4.9953857              1.3822288             -1.1220936
Ar             -0.1681578             -3.0311142             -4.5493033
Ar             -4.4300801              1.1003796             -1.1233106
