42
Energy:            -194.3412
Ar             -0.5740603              0.4479548              1.7215465
Ar              1.2151190             -1.5015853              4.2295935
Ar              2.4463863             -1.1990925              0.5714766
Ar              1.4668620              2.1630054             -0.7341072
Ar             -0.4717234             -0.8718886             -1.7034422
Ar             -2.2562583              2.2903748             -0.8832160
Ar             -3.5818344             -0.9762516              0.3459997
Ar             -0.6677224             -3.1248320              1.2595653
Ar             -2.2114552              0.9990580             -4.4009339
Ar              2.6194106              3.4619022              6.1532999
Ar              2.5667607              1.7823900              2.8476738
Ar             -2.7783829             -5.1131927              3.5514946
Ar             -5.4038143              0.8902754             -2.3261285
Ar              2.4234783             -4.8975619              0.1233323
Ar              4.7206184              3.5824192              0.3242352
Ar             -5.4390751              3.9665402             -0.0380173
Ar             -3.5640471             -2.3491488             -3.1385623
Ar             -4.0261791              4.2242509             -3.5677107
Ar             -6.7303738             -2.4550695             -1.0559249
Ar              5.5913229             -2.8949216             -0.5708819
Ar             -2.1721015              5.9832899             -0.7300014
Ar             -0.7766113             -6.8476338              0.8107008
Ar             -0.4436905              4.0717565              2.0072506
Ar             -0.2215915              4.1039750             -3.4375858
Ar              4.6061685              0.5238868             -1.9326245
Ar              4.3294992             -3.2283298              3.0139601
Ar              1.1191426             -5.2338549              3.7079331
Ar             -6.8073372              0.6006106              1.2252134
Ar             -0.5800661             -4.5521425             -2.2025507
Ar              5.7957963              3.2569407              3.9672210
Ar             -0.3828211             -2.2328287             -5.2078346
Ar             -2.6480153             -1.3842531              4.0788139
Ar             -3.7711770             -4.6755687             -0.1244282
Ar             -3.6731316              2.0808832              2.7026129
Ar              5.7226137              0.1527427              1.7108089
Ar             -0.6184883              1.7966815              5.1035379
Ar              2.6128077             -2.5760832             -2.9008680
Ar             -5.7768571             -2.8953779              2.6135481
Ar              1.6596628              5.8434076             -0.5947605
Ar              1.6045750              0.8594237             -4.2474670
Ar              3.5810143              3.9430448             -3.2777762
Ar              2.8727101              5.5277839              2.9767072
