42
Energy:            -189.4974
Ar              0.1826640              0.9334884              0.4612780
Ar             -1.8476340             -1.9994596             -1.0330050
Ar              1.2659517             -2.7229927              0.9984779
Ar              1.9807003              2.1955151             -2.8209300
Ar             -1.7932123              1.7562325              3.5647344
Ar              1.3019535             -1.3048723             -2.3967064
Ar             -1.8719642             -1.5755342              2.4488047
Ar             -0.6384948              4.7694099             -2.4047322
Ar              1.2889669             -0.2366275              3.8843041
Ar              4.5036509              1.7497969              3.0230328
Ar             -0.0594986              3.3047289             -5.7973045
Ar             -2.0556931             -1.0323063              6.0600925
Ar             -3.5799712              0.9656987              0.2920332
Ar             -1.4946596              1.1470664             -2.8823261
Ar              2.5951658              3.7928189              0.3973289
Ar             -3.6690899              3.5688299             -4.6429587
Ar              3.8587361              2.6245531             -5.9313870
Ar              4.5533235             -0.4987996             -3.8536146
Ar             -3.9677315             -3.9061304              4.2592353
Ar             -4.1441418              2.3197154              6.3375840
Ar              4.0684363             -3.5003263             -1.3681583
Ar             -1.8771690             -5.0224196              1.1637776
Ar              0.3314832             -4.8886113             -1.9721338
Ar             -4.6033694             -0.8739450             -3.1393352
Ar             -5.0128210             -2.6385568              0.6790823
Ar              5.5245165              2.7964788             -2.0971632
Ar             -0.3741826              2.2200385              6.9418051
Ar             -4.7664579              3.6735309              2.6882818
Ar             -3.6727759             -4.8274970             -2.3316147
Ar              4.4063381             -2.0818806              2.8522633
Ar             -1.3669717             -2.6765832             -4.6073443
Ar              0.1111916             -3.8785353              4.4422019
Ar             -1.9543715              5.1678920              4.9112598
Ar             -1.1485534              4.4035076              1.2087505
Ar             -5.0545424             -0.1552819              3.6296061
Ar              2.4579671             -3.6563448             -4.9335268
Ar              1.2133602             -0.1511098             -5.8381976
Ar             -4.1431570              4.3507067             -1.0325449
Ar             -2.5563247              0.3962834             -6.3515487
Ar              3.7573868              0.0983078             -0.1423836
Ar              1.3869637              3.5737427              3.9130568
Ar              3.2817959              1.4435703              6.5540567
