42
Energy:            -190.8957
Ar              0.9040757              0.6726129             -0.7545798
Ar              4.4504753             -0.0457635             -1.1599069
Ar             -1.3392961             -2.1841163             -0.9098902
Ar             -2.6274424              1.2602602             -0.2386265
Ar             -0.6274581             -0.5033610              2.3447996
Ar              0.0143288              3.1971912              1.7263922
Ar              2.8646290              0.7555501              2.2625133
Ar              2.0375369             -2.4776563              0.6253164
Ar             -1.6070838              1.9875685              4.8752381
Ar              2.3197315              1.7860472             -3.9223007
Ar             -1.2410296              0.3852325             -3.6414933
Ar              5.6146334             -3.3271167              0.3174919
Ar              4.1212409             -2.4594001              3.7259829
Ar             -0.2017933             -5.4451404              0.4696254
Ar             -4.9318210              0.9496667             -3.1413902
Ar              5.1506918              3.5971182              2.7629012
Ar             -2.1700657             -1.7341662              5.5544185
Ar              1.9715068              3.2173747              4.9354941
Ar              0.5374544             -3.7280442              3.7984662
Ar             -4.9940981             -1.6468542             -0.3814880
Ar             -1.5581292              6.3350566              0.4437460
Ar              3.2104007             -5.7558413              2.0635514
Ar             -0.4152628              3.7972845             -2.0716215
Ar             -3.6852205              3.7807221              2.2603105
Ar             -3.6538877             -5.1576069             -1.0213740
Ar             -0.5784512             -4.9200058             -3.2772899
Ar              2.9116324             -5.2325336             -1.7048401
Ar              1.3961233             -0.4705620              5.4540144
Ar             -0.7903075              0.6303976              8.2703444
Ar             -3.5304329              0.0578236             -6.5693973
Ar             -4.2592448              0.0731453              2.9337139
Ar              1.7713277             -1.9585728             -3.1394605
Ar              4.9339663              0.8556415              5.4064791
Ar              3.1356430              3.5318687             -0.4493181
Ar             -3.6096734             -2.5632596             -3.8081214
Ar             -0.5718851             -2.3509158             -6.0697172
Ar             -2.9253260             -3.4080750              2.2409540
Ar              6.4802798              0.0112742              2.0177978
Ar             -4.1348482              4.3687731             -1.5417319
Ar             -1.7697948             -6.6917756              3.6496259
Ar             -6.3099624              1.8507732              0.2863416
Ar             -2.7968788              3.4861575             -4.9835268
