42
Energy:            -191.1016
Ar              0.2816750             -1.3088356              0.7536739
Ar             -4.4455828             -4.8486383              2.8959560
Ar              2.2895224             -0.2999827             -2.0760222
Ar              2.5755524              1.4576477              1.1932669
Ar             -0.5068274              1.8719406             -0.8413927
Ar             -1.8240417             -2.2577869              3.5337721
Ar             -3.1800367             -0.3561385              0.5168281
Ar             -1.2522746             -1.3732346             -2.5187152
Ar             -2.0669123             -4.0216880              0.1157430
Ar              3.7988740             -2.1494005              0.9084460
Ar             -3.7094961             -4.0438524             -3.2618667
Ar             -5.4685952             -1.2207406              3.2845366
Ar              0.7649354             -0.3451410             -5.4868328
Ar              1.1023335             -4.4560270              2.3739520
Ar              5.9079453             -1.0465063             -2.0302859
Ar             -3.1083482              0.5191506              5.6984501
Ar              1.8159885              4.7489806             -0.4106479
Ar             -4.0642618              2.9014622             -1.1188287
Ar             -6.7914638              0.6408610              0.2460176
Ar              6.1968958              0.7070085              1.3507462
Ar              4.2769531              1.8712038              4.4850325
Ar             -2.8484405             -1.4553733             -5.9186704
Ar              1.5218195              4.2902883              3.3586713
Ar             -4.4297553              2.4331208              2.6466003
Ar              4.6840652              2.5478275             -1.6716648
Ar              3.4415357             -2.8801926             -4.4533135
Ar             -0.1941064             -4.0019215             -4.9023176
Ar              5.0438527             -4.6989606             -1.5277642
Ar              1.8151205             -0.9001133              3.9995559
Ar             -1.3232243              5.1437208             -2.5011111
Ar              1.3663415             -3.9722641             -1.4861199
Ar             -4.8348733             -0.4031342             -2.8433221
Ar             -0.2969450             -1.8177181              6.9140928
Ar              1.5303691              2.9570936             -3.7612836
Ar              4.3728908              0.7657780             -5.0128460
Ar              5.4462791             -1.7439031              4.2249135
Ar             -2.0881701              1.8484726             -4.2167367
Ar              2.7050658             -4.0148948              5.7679438
Ar             -5.6917942             -2.9843884             -0.1691688
Ar             -0.8411810              1.4346331              2.8989626
Ar              4.9625216              4.3172700              1.6702664
Ar             -1.6570274              4.6994909              1.2676368
