42
Energy:            -190.9738
Ar             -0.8760462              0.6605396              0.2583711
Ar             -3.4209908             -3.9435895             -3.1392634
Ar              1.1265902             -1.7785713             -1.5067884
Ar             -2.1313336             -2.7244713              0.1119940
Ar              0.8376517             -1.8992244              2.2241311
Ar              0.4609480              1.5859758              3.4935464
Ar              2.7282690              0.8652925              0.5956765
Ar              0.5908150              3.9256026              0.5908970
Ar             -2.1737665             -0.4130310             -2.9311937
Ar              4.2920546              4.2288804              0.9213379
Ar             -5.7819961             -3.1757822             -0.1197772
Ar              3.0510680             -0.6550972             -4.4549778
Ar             -1.4375491              4.0220178              5.5058579
Ar             -0.4449981             -5.3914751              2.1019325
Ar              4.8456386             -1.6025823             -1.2167112
Ar              2.5155251              5.2538177             -2.2960789
Ar             -2.8383594              3.0791736              2.1317866
Ar             -6.2031404             -1.0247244              3.0565449
Ar             -3.2838694             -1.7191601             -6.2590427
Ar             -3.8940491             -4.0902923              3.1005222
Ar              1.8348239              2.5658051              6.8385575
Ar              6.4517088              1.1028837              0.9333382
Ar             -4.2813681             -1.9305612              6.2258812
Ar             -1.2296688              0.3250769              6.5603293
Ar             -0.1320773             -5.2920385             -1.7031650
Ar             -1.2659027              6.4625931              2.5639046
Ar              4.6722693              2.0887069             -2.2997675
Ar              4.5349518             -1.7232504              2.5973707
Ar              0.9403519              1.8755665             -2.6372723
Ar              4.1626051              1.8366362              3.9001095
Ar              2.2167248             -0.9892995              5.5573081
Ar             -4.5187997              1.7485072              5.2190778
Ar             -0.2187239              0.5877464             -5.9586762
Ar              2.8963132             -4.4307376              0.4440221
Ar             -0.9352973              6.6998750             -1.2904647
Ar             -2.4889126              3.2669276             -1.7148732
Ar              1.9755641              4.9647039              3.8955448
Ar             -0.0526819             -3.0100126             -4.7618750
Ar             -4.4959838              0.3638595              0.0000588
Ar             -0.8521918             -3.2420453              5.2513872
Ar             -2.5328273             -0.6149661              3.1839689
Ar              2.5810923             -4.5382727              4.2415107
