42
Energy:            -193.3407
Ar              1.2871860              0.6041436              0.6044988
Ar             -0.1356029              1.4869218             -2.6036469
Ar             -1.6657078              2.6892996              0.5878957
Ar             -1.9037382             -0.9087314             -0.3605300
Ar             -5.1818393             -2.4707210             -1.3419623
Ar              2.5979075             -0.4085665              3.8378669
Ar              0.6436305             -2.8128997              1.5715472
Ar              1.3051986             -1.9080656             -1.9900981
Ar              4.1555733             -1.6304296              0.5795772
Ar              1.7290386              4.0383760             -0.4820108
Ar              4.1307100             -4.2784458             -2.1283479
Ar              1.8867419             -3.9497670              4.8667811
Ar             -4.9653742              1.1960690             -0.3858506
Ar             -0.1476596             -1.0656940             -5.3291861
Ar              6.4697249             -1.3059240             -2.3602470
Ar             -1.6106568              2.4015917             -5.9332560
Ar             -4.2511489              2.1576565              3.2293423
Ar              1.3202254              6.6884758              2.1256164
Ar              0.0037078             -6.3668632              2.5940967
Ar             -1.3502627              6.2028511             -0.5294438
Ar             -2.0201559              5.2629626              3.2193319
Ar              1.3201516             -4.5232847             -4.6835368
Ar              2.1691027              2.0723001              6.6247256
Ar             -1.8699473             -3.4856035              4.2483661
Ar             -3.1845627              3.6425194             -2.6900354
Ar              2.1432705              1.9867563             -5.4712733
Ar              3.6149790             -1.4933619             -4.8486953
Ar              1.0751573              3.1122967              3.2069579
Ar             -1.9304714             -3.5035831             -3.0188979
Ar              3.6262977              1.1077256             -2.1180030
Ar              0.6651072             -5.4695847             -1.0503759
Ar             -2.5961277             -4.4298871              0.6247722
Ar             -0.0094998             -1.0363072              6.5148605
Ar              0.2167210              4.9691584             -3.8030742
Ar              4.4422521              2.1612768              1.5262351
Ar             -3.4007534             -0.0338956             -3.6471404
Ar             -1.5286016              2.5331565              5.8784914
Ar              3.4751409             -5.1969669              1.5375963
Ar             -4.4602952             -1.5178381              2.2727478
Ar             -1.1824518              0.0294744              3.1877280
Ar             -4.7304601              4.8565238              0.5762687
Ar              3.9741378              4.6001527             -3.4208583
