42
Energy:            -191.3278
Ar             -0.2430147              0.0918735              1.7887178
Ar              0.4391829              1.1858811              5.2197695
Ar              2.6241292              0.5899400             -0.4891030
Ar             -0.4143298              2.7149376             -0.7734452
Ar             -0.5141330             -0.8639490             -1.8042128
Ar             -3.3465990              0.6192000              0.0551471
Ar             -2.0919449             -2.8525199              0.8850073
Ar              1.5972289             -2.8231650              0.5673953
Ar             -3.8055002             -0.3788793             -3.5033114
Ar              0.0605193             -2.6772734              4.0992336
Ar              1.8089840              3.0460376              2.2192512
Ar              1.9131207             -5.7293909              2.8168156
Ar             -5.4488704             -2.3788253             -0.6811693
Ar              4.5211527             -2.3796374             -1.7223157
Ar              1.6327157              5.7849959             -0.3661087
Ar             -6.2704291              0.0966845              2.1855447
Ar             -2.5364641             -3.8847898             -2.6644889
Ar             -6.6918318              1.1211322             -1.5212494
Ar             -4.1649843             -5.8670203              0.1497473
Ar              5.5721052              1.1067622             -2.7938776
Ar             -5.2943741              3.6684620              0.9359728
Ar              3.4452066             -5.8681441             -0.6536995
Ar             -2.0209373              3.1165718              2.7079658
Ar             -3.6917940              3.3106694             -2.4967637
Ar              2.4640380              3.2723444             -3.0906420
Ar              6.0495885              0.0429785              0.8202701
Ar              4.9995201             -3.4945251              1.8788823
Ar             -5.0039757             -3.4132386              3.0232432
Ar              1.2752730             -3.8730616             -3.0285707
Ar              3.9031752              6.0905835              2.6867992
Ar             -0.7806931              1.7841088             -4.3931121
Ar              3.1205345             -0.4696648              3.1020700
Ar             -0.3464876             -5.9244546             -0.2838243
Ar              3.5190633             -3.4190808              5.3637810
Ar              4.7508419              3.6006719             -0.0652721
Ar              5.2546046              2.5830592              3.5498658
Ar              2.3531242             -0.3787205             -4.1137439
Ar             -1.8912142             -5.7663200              3.1955809
Ar             -2.2438782              5.8078774              0.0576736
Ar             -0.8845112             -1.8664204             -5.4189446
Ar             -0.6556314              5.4296356             -3.3731423
Ar              0.0715190              6.2350552              3.0479850
