42
Energy:            -184.4892
Ar             -0.0344822              0.1460022             -0.2496654
Ar             -0.0520732              3.3065246              1.3593814
Ar             -0.0986794             -2.9186927             -1.9797765
Ar              0.5730956             -2.7980464              1.5581020
Ar             -0.7478253              2.8710914             -2.2882249
Ar             -1.2709357              0.2109314              3.2168600
Ar             -0.4672934              6.8956457              2.1059120
Ar              1.3035660              0.0808774             -3.7320809
Ar             -1.2361245             -5.6962170              0.1686591
Ar              1.0344475              5.8978583             -1.3178650
Ar              1.3009409             -6.0215886              3.0096217
Ar             -0.0730550             -6.1682068             -3.5389185
Ar              2.7776647             -3.4841598             -4.1190657
Ar             -1.6916859             -1.2035557              6.7112723
Ar              2.4808789             -5.2082366             -0.5927678
Ar              1.9639213              3.8058209             -4.5156222
Ar             -4.2228749              3.1206954             -3.3528411
Ar             -2.2282109             -3.4751602              3.7580944
Ar             -2.5887053             -0.3413613             -2.9776627
Ar             -3.2249862              4.2255417              2.9216309
Ar             -1.4721115              5.7339422             -4.3741091
Ar              4.0729777             -3.2877447              2.4708882
Ar              1.2949656              1.1079589              5.9992050
Ar              4.2888917              2.8846447              4.5054409
Ar              0.8638354              4.5112668              4.6899053
Ar             -0.8458198             -2.5617203             -5.5199095
Ar              2.4317337              0.4088798              2.4329374
Ar             -2.9146220             -2.0247051              0.4067420
Ar             -1.3232487              1.9201562             -5.7734279
Ar              1.3945109             -2.3795661              4.9939677
Ar              3.1263917              5.1288784              1.7085387
Ar              3.2399123             -1.4745700             -0.8225601
Ar             -3.4418975             -4.2176951             -2.6262251
Ar             -4.7175106             -5.1523975              1.3043619
Ar             -2.7073026              5.4502171             -0.6114292
Ar              2.7883852              2.4045317             -0.9732553
Ar             -0.3266965             -5.3622281              6.3693398
Ar              3.6025727             -5.2402221              5.8406463
Ar             -2.1226315              2.5906485              6.0590708
Ar             -3.3502595              1.7203441              0.1666883
Ar             -2.1187862              6.5196201              5.6403380
Ar             -2.2521607             -7.1839689              3.5061698
