42
Energy:            -192.7925
Ar             -0.3998466              0.1910897              1.6357851
Ar              5.0773470             -1.1003729              4.3966206
Ar              2.3324749             -1.4891973             -0.0424693
Ar              1.4219516              2.0397211             -0.8880971
Ar             -0.8205645             -0.7633596             -1.8958723
Ar             -2.2672009              2.3926551             -0.5289884
Ar             -3.6459350             -0.9092270              0.5404811
Ar             -0.7967687             -3.3050132              0.8349513
Ar             -2.7547190              1.4805624             -4.1323228
Ar              0.1465520              1.1638851              5.1072228
Ar              2.9301403              1.2538948              2.4831639
Ar              3.3468342              3.9479102             -3.4937887
Ar             -2.7200265             -5.3999045              3.1881163
Ar             -5.6628939              1.3341971             -1.6631178
Ar              2.0040202             -5.1073120             -0.8699365
Ar              4.8497453              3.1643123             -0.1227954
Ar             -5.1844342              4.1454330              0.9019238
Ar             -4.1625365             -1.8993986             -3.0385600
Ar              1.0212602              1.1155841             -4.5105344
Ar             -4.2210957              4.6961576             -2.7499558
Ar             -7.0411109             -2.0495917             -0.5650892
Ar             -1.9065751              6.0464319             -0.0373400
Ar              5.1930961             -3.2026479             -1.7799606
Ar              4.2356112              0.3603419             -2.6508050
Ar             -1.2172463             -6.9442873              0.0371695
Ar              0.0018226              3.7601833              2.2423931
Ar             -0.4385238              4.3566787             -3.1357950
Ar              4.3702086             -3.8873739              1.8879172
Ar              1.1453081             -5.7778453              2.7931977
Ar             -6.6100245              0.7433295              2.0010956
Ar             -1.2494159             -4.3536677             -2.7356767
Ar              6.4357665              2.3311611              3.2047229
Ar              7.7344996              1.4593316             -1.8252086
Ar              1.5256553             -2.1477463              3.6577872
Ar             -4.1517207             -4.5229701             -0.2607716
Ar             -3.2186312              1.8813957              3.1880897
Ar              5.7855267             -0.4650300              0.7474746
Ar             -2.2808430             -1.7576892              4.0597014
Ar              1.9538274             -2.4967040             -3.6446277
Ar             -5.6615769             -2.9368326              2.8815392
Ar              1.9046625              5.6675479             -0.4013045
Ar              3.5319811              4.8903298              2.9610472
