42
Energy:            -186.3677
Ar              1.0733719             -1.3872560              0.2810345
Ar             -0.0072641             -4.5637034             -1.2386461
Ar              0.7218265             -4.6776857              2.6055180
Ar             -0.9626541              4.0073869             -0.0570515
Ar              1.9493742              1.7435930              1.9954044
Ar              4.4812747              0.1195432             -0.2309486
Ar             -1.7149665              1.2532302              2.3319865
Ar              3.4838476             -3.0213887             -2.0173436
Ar              1.3763791              1.7093474             -1.6071219
Ar              0.3585860             -1.4410425             -3.2863483
Ar             -2.1018768             -2.6425629              1.4521122
Ar             -2.0086249              0.2982577             -1.0883136
Ar              2.5238491             -3.1081670             -5.7215816
Ar             -0.0599858              4.4088591              3.5742918
Ar             -1.8248486              2.0764029              5.9733985
Ar             -2.5446711              3.1095875             -3.3760079
Ar             -4.4526688              2.9969716              0.1441537
Ar              0.4966412             -1.1997924              3.8470724
Ar              3.8422619             -2.6052790              2.3231287
Ar             -2.8706265             -0.4586072             -4.7001701
Ar              4.9522145              0.6641024              3.7807904
Ar              3.3202770             -1.8732889              6.0910869
Ar             -3.4197260             -2.9610620             -2.0043744
Ar              3.7189587              0.1444595             -3.9968901
Ar             -5.0111750             -0.5079623              1.2461681
Ar              3.6796764              4.4212807              4.0344865
Ar              5.7786153              3.2732191              1.2145498
Ar             -3.2146955             -1.1840239              4.7224321
Ar             -5.5411007              0.4340940             -2.3549782
Ar             -0.4202503             -1.3133299             -7.2679572
Ar              1.0078608              4.9392077             -3.2415252
Ar              2.5292285              5.0210357              0.3949980
Ar              0.4100504              1.6827964             -5.1574582
Ar              4.5666065              3.4068054             -2.3038598
Ar              2.9404333              0.2404143             -7.6330745
Ar              3.5111901              3.5573037             -5.8578281
Ar             -4.9550438              2.2122383              3.8639742
Ar             -0.2992189             -1.0637671              7.4281856
Ar              3.3404441             -5.8772898              0.2986631
Ar              1.8544358              1.6674885              5.7545096
Ar             -2.5614440              2.2006840             -7.2758847
Ar             -1.3119756             -4.2063721             -4.9420607
