42
Energy:            -185.0895
Ar             -0.4477715             -0.5891887              0.2965500
Ar             -2.4884827              0.6644869              3.9184000
Ar             -0.8502308              1.2485892             -3.0418837
Ar              2.1531756             -0.8724038             -2.5645871
Ar              1.2015959             -0.1601548              4.0665090
Ar              1.4677196             -3.6298826             -0.3664584
Ar             -2.9051762              2.0218856              0.0986055
Ar              1.8712303              2.2359609             -0.7835733
Ar             -1.1805193             -2.8613663              3.1322205
Ar             -0.0053134              2.7143454              2.1989346
Ar             -2.1847681             -3.8771640             -0.3137012
Ar              2.4723938             -3.5933001              3.2329769
Ar              0.6049335              4.9187501             -2.8907153
Ar              2.8146551              3.3828392              4.4151440
Ar             -0.7458066             -2.7015152             -3.5542966
Ar              4.0623457             -5.9484070              0.7156559
Ar             -5.9558164             -3.7944348             -0.6954125
Ar             -6.0742901              1.8184890             -1.7636278
Ar              2.6471923             -4.3645528             -3.8779812
Ar              4.4282112              4.5921805             -2.0373101
Ar              4.8658278              2.7233210              1.3798314
Ar             -0.0610685             -6.2158004              1.7418533
Ar             -3.7476187             -4.8550340             -3.5520558
Ar              3.2394402             -0.6558268              0.9951817
Ar             -4.2179660             -1.3467013              1.4734140
Ar             -5.2219898              5.0127560              0.1235372
Ar             -5.9855410              1.8562732              2.1535978
Ar             -3.2788098              4.2514751              3.2427253
Ar              5.3128217              0.8895282             -1.8371743
Ar             -3.1566066              4.2037110             -2.9156848
Ar             -1.4152567              5.4937153              0.2055938
Ar              6.0042647             -2.9049446              2.1829135
Ar              4.8885220             -1.2789860             -4.9498770
Ar              5.0718949             -2.9009179             -1.4289563
Ar             -3.6811556             -1.0278522             -2.1168125
Ar             -4.0683288              1.2297017             -5.0302481
Ar              2.7551388              2.1852103             -4.4725680
Ar              4.9234630              0.1414098              4.2074351
Ar             -0.2490501             -6.3210282             -2.2957151
Ar             -0.0108114              6.0375474              3.8587908
Ar             -4.1721617             -5.0733170              2.5348139
Ar              2.2891556              5.4659139              0.9565884
