42
Energy:            -186.0079
Ar             -0.0329146              0.5762882             -0.0267554
Ar              1.7373620              3.1492083              1.9364177
Ar              1.6859936             -1.0320606             -2.7808914
Ar             -2.2634988             -1.6630152              1.7555710
Ar             -3.4350427              1.1321762             -0.4285916
Ar             -1.8835756             -2.0906417             -1.8698763
Ar              1.1388908             -0.4368817              3.3798204
Ar              5.1170746              0.5683715             -2.8598561
Ar              3.4063936              0.1539233              0.3570829
Ar             -1.7453252              1.9203773              2.8293472
Ar             -1.1655522              1.2986011             -3.4469491
Ar             -5.4969102             -2.8632695              3.3183210
Ar             -5.3204053              0.8070031              2.6945775
Ar             -4.7619910             -0.0289574             -3.6037473
Ar              1.8480559             -4.7871807             -2.5588244
Ar             -6.9162302              2.0089134             -0.8309487
Ar              4.7451001             -2.8611870             -1.1752141
Ar              1.1440020             -2.7864768              0.4570338
Ar             -1.7426670             -5.7713691             -2.5818744
Ar              4.4484612             -2.4700470              2.6317419
Ar              2.1238348              2.8164131             -1.8405702
Ar             -4.4435537              4.2506070              1.2136841
Ar              4.7296360              1.2975520              3.5233797
Ar             -5.7466368             -1.6324610             -0.2322746
Ar              4.6643372              5.0955255              3.2124360
Ar              4.8642925              4.1951584             -3.8576734
Ar              5.3558387              3.2264749             -0.0064726
Ar             -0.3695428             -6.0683570              0.9374279
Ar              3.3952892             -5.7094403              0.8976624
Ar             -1.2337677              5.5504666              2.9865993
Ar             -4.1632485              3.6505788              4.9760689
Ar             -4.9441366             -3.8227267             -3.1711395
Ar             -3.9927237              3.8002460             -2.8712988
Ar             -3.7999385             -4.7252594              0.3844576
Ar              6.9976779             -0.2413045              0.5918675
Ar             -1.0961995              4.0696275             -0.4794119
Ar             -2.2886427             -4.6307983              3.9468271
Ar              2.2644556              1.6453927             -5.3182361
Ar             -2.7951071             -0.7685450              5.2433749
Ar             -0.0976496              4.7683893             -4.1103134
Ar              1.3815013             -4.2144992              3.8553043
Ar              4.2410040             -2.5620603             -4.9184664
