42
Energy:            -184.6856
Ar             -3.2058982             -0.7092156             -0.9370584
Ar             -0.1120961             -0.3627609              1.1039398
Ar             -1.8388539             -3.9360881              0.9519266
Ar              3.4937817              3.6002644             -2.4089066
Ar             -0.1373425             -2.5710139             -1.9062344
Ar              0.7363478              2.8171247              2.8565749
Ar              2.5367536             -0.1138328             -2.0509764
Ar              0.3690084              2.7386732             -0.6962518
Ar             -2.7845160              2.1204815              1.7241055
Ar              2.2222714             -3.1476051              1.0890360
Ar             -0.8137361              0.7206910             -3.4630350
Ar              1.4613850             -1.8461529             -5.1894339
Ar             -2.4775986             -2.2749998             -4.7721139
Ar              3.1198233             -3.8187356              4.8337842
Ar             -0.2329319             -2.6643935              3.9228473
Ar              2.1467618              1.8075724             -5.4095957
Ar             -1.3190494              0.6249492              4.7951975
Ar              3.6550549              1.6278966              0.9072735
Ar              2.5124643             -0.1904184              3.9286243
Ar              1.3240554              2.5906875              6.5002662
Ar             -3.1526695              2.7221349             -5.5379821
Ar              0.9929831             -1.2849591              7.1581304
Ar             -3.1278610              3.1954637             -1.7974177
Ar             -0.0112073             -5.0140636              6.7284915
Ar             -1.6781353              1.1746114              8.4059305
Ar             -0.8970068              0.2049491             -7.2024976
Ar             -0.1148400              4.4476840             -3.8833479
Ar             -0.1588146              3.8744520             -7.5971997
Ar              2.6599343              5.3055129              0.9168590
Ar             -1.9901270              4.2533526              4.9270995
Ar             -2.7017065             -2.2189015              6.7163706
Ar              4.1397296              3.4780423              4.1225042
Ar             -0.6435871             -3.5537919             -7.8097362
Ar             -1.1984835              5.5318099              1.2633561
Ar             -2.9107573             -5.1072224             -2.3599993
Ar              0.5725382             -6.1079027              2.9879488
Ar             -3.6673993             -1.4237293              2.8778112
Ar              0.1701118             -5.2567266             -4.5036199
Ar              1.3018775              6.0657938              4.4364831
Ar              3.2631599             -3.8677818             -2.5255901
Ar             -2.9946126             -5.1137395              4.2949734
Ar              0.6358157             -6.0735662             -0.8323691
