42
Energy:            -188.4007
Ar              0.4840401             -0.9679481             -0.1300377
Ar             -1.4333945             -0.7583675              2.8335686
Ar              1.9805144             -2.0941358              2.9735555
Ar              1.3785803              2.1201187             -1.6203406
Ar             -3.1432938             -1.6522037             -0.2816861
Ar              1.2597090              1.6872867              2.2900417
Ar              2.7630098             -1.2579708             -2.9240800
Ar             -1.4687830              0.3562141             -2.9848085
Ar             -1.7308967              2.5359006              4.3951114
Ar             -1.8353798              1.9520561              0.2915622
Ar             -0.2709132              5.2708675             -0.7071391
Ar              0.3869480              5.2667961              2.8818404
Ar             -0.9195638              3.8738458             -4.1346000
Ar             -0.4503067             -3.1794762             -2.7647763
Ar              2.0386413              3.2920375              5.5707548
Ar              2.6957138             -4.9573292             -3.8394311
Ar              1.9485687             -5.8159692              2.8864954
Ar              2.6074880              5.1189089             -3.2862966
Ar             -4.1746517             -3.1615570              3.0145450
Ar              4.3028581              0.5560448              4.0959616
Ar              4.0038493              0.1823145              0.2986387
Ar              1.4293068              1.2856344             -5.2792104
Ar              3.3882242              4.2162860              0.5655229
Ar             -0.8888214             -4.1259318              1.1852819
Ar             -0.8084184             -3.6949848              4.9601136
Ar             -5.2090692              1.0898802             -1.3751658
Ar             -3.3627621             -5.1092758             -1.6992177
Ar              4.7209867              1.9282022             -3.1211578
Ar              0.6267873             -0.1428591              5.8127826
Ar              2.7102879             -3.8620631             -0.2526171
Ar             -3.3039471              4.8811663              1.9066078
Ar              5.4927946             -2.7612590              2.1230682
Ar             -4.2634187             -1.8696151             -3.8115218
Ar             -1.9286481             -0.4589408             -6.5301567
Ar              4.5954500             -0.6170909             -6.0776013
Ar             -2.1635994             -4.2840163             -5.7993840
Ar             -4.6819886              0.8569968              2.4394170
Ar             -4.1984926              2.0404577             -4.8394197
Ar              1.1797648             -2.4048678             -6.1045664
Ar              0.2759441             -6.5668952             -1.3474042
Ar             -3.2867135             -0.6908884              5.9346157
Ar             -3.7612922              4.4433700             -1.8291504
