42
Energy:            -187.2313
Ar             -0.7342956             -0.4796806             -1.5215138
Ar             -0.9810289             -4.1099805              1.6744926
Ar             -0.5578503             -3.2521225             -3.7800900
Ar             -1.0468463              2.7250297              0.5804660
Ar              1.9263277              1.8861482             -1.4399945
Ar              1.6271370             -1.5451005              0.9272841
Ar              1.9404376              1.6809063              2.3493902
Ar             -3.2121316             -0.5146864             -4.2437671
Ar             -1.9271724             -0.5045113              1.8849091
Ar             -1.3782971              2.7165413             -3.1158713
Ar              2.7014691             -1.5044982             -2.5320829
Ar              2.5001939             -2.9350197             -5.9495473
Ar             -1.7515727             -6.0504682             -1.6604208
Ar             -3.3962934             -2.7820503             -0.7957499
Ar             -1.0358409              2.0737532              4.4392686
Ar             -4.0197524              1.0430861             -0.9262078
Ar              4.1957004             -1.1697245              3.5868582
Ar              4.8422051              0.5521755              0.3157740
Ar              0.4985446             -1.5616913              4.4416913
Ar             -4.2583043              2.4830714              2.4729333
Ar              3.8593082              4.3342558              0.5404580
Ar              4.0993364              0.5282749             -5.3393457
Ar             -3.2615009             -2.7618167              4.4179772
Ar              2.4678069              1.3235885              5.9653053
Ar             -6.4264562             -1.3645438             -2.4179171
Ar             -3.6301037              4.8336044             -0.9252364
Ar              2.5529513             -4.5382816              2.8789237
Ar              5.3209156              2.4890396              3.5778269
Ar             -5.6128708             -1.0962236              1.7090466
Ar              1.9490756              3.7202206             -4.6046270
Ar             -4.9643375              2.9261959             -4.0133176
Ar              5.2907503              2.8039177             -2.6577224
Ar              4.9146954             -3.1471511              0.2174002
Ar              0.4447020              0.1697885             -5.0200429
Ar              0.6395494              5.4027244             -1.3178664
Ar              1.6584776             -4.7014801             -0.9423662
Ar             -1.9106727              6.2031842             -4.0729951
Ar              1.4431827             -6.3124052             -4.3015061
Ar              0.7721934              5.1871529              2.6404890
Ar             -4.2022126             -4.1788335             -4.1224768
Ar              4.6882695             -4.5303873             -3.2950577
Ar              6.3515030             -1.0417296             -2.7220337
