42
Energy:            -187.1057
Ar             -0.5584629              0.0387070             -0.7900810
Ar              2.3047361             -2.8539108             -0.9623441
Ar             -2.6438985              3.0292281             -0.4972941
Ar             -1.2635709             -3.7953654             -1.0987363
Ar              1.3110014              3.4618280             -0.8320210
Ar             -0.1275733              2.1917601              2.2822525
Ar             -3.1050004              0.0813792              1.8659041
Ar              0.0815928             -2.0854730              2.0482081
Ar              0.2061068             -1.7248128             -3.8270042
Ar             -3.3225259             -1.2363860             -2.8993440
Ar             -0.4576819              2.0708485             -3.8701936
Ar             -2.9954122             -3.1363005              3.8989398
Ar              2.6825459              0.5199743             -2.6520634
Ar              3.3777723              3.3852025              2.8248320
Ar             -2.7823093              3.2377873              4.6391047
Ar              1.2419212             -5.2413987             -3.7395927
Ar             -2.2338006             -4.1720266             -5.0059964
Ar              2.2944612              0.0612514              4.3018300
Ar              3.0902695              3.7402965             -4.2473141
Ar             -4.8073335              0.0635404              5.2592673
Ar             -1.9774101             -0.3492408             -6.3831711
Ar             -2.1975182             -2.2836547              7.6386439
Ar              3.8505251             -2.4701032             -4.4469787
Ar             -4.1568375              2.2121970             -3.9552080
Ar              3.7611016             -2.8623426              2.5439032
Ar              0.8031153              3.0432096              5.8731586
Ar              2.0408938              0.4615343             -6.2745237
Ar             -2.1725449              1.5782540              8.0222314
Ar              1.2726482             -0.2225030              7.8320745
Ar             -5.6680632              0.6680964             -0.7970563
Ar              5.6236136             -1.0963295             -0.9290458
Ar              2.7040249              0.3314955              0.8431895
Ar              5.8467303              0.9234504             -4.3278841
Ar              4.5277498              2.0169307              6.3578854
Ar              0.9417904             -3.1590548             -7.0723171
Ar              5.7611437              0.3766478              2.9179246
Ar              4.5970421             -1.9218372              6.2439258
Ar              5.0558466              2.6990829             -0.7707109
Ar             -5.5754441              2.8150828              2.2556647
Ar             -1.1695948             -0.0958408              4.9444487
Ar              0.9213106             -3.2070519              5.4848523
Ar             -4.5832246             -2.8834721              0.3220800
