42
Energy:            -191.8133
Ar             -0.0972294             -0.9531100              1.2655751
Ar             -0.6003249             -1.5494081             -2.2905940
Ar              2.8268975             -1.1056572             -0.8554691
Ar              0.5133165              1.7882179             -1.0577382
Ar              1.1356048              4.6210163             -3.4593723
Ar              0.2832154             -7.0786922              2.1200797
Ar             -1.0080851              2.3741217              2.2850456
Ar             -2.9544374              0.5755935             -0.3485534
Ar             -3.1139520             -0.6536965              3.2488578
Ar              0.8390925             -4.1629997             -0.0554262
Ar             -6.0763549              0.9808833              1.5914559
Ar             -2.7101987              0.3732521              6.8118010
Ar              3.5203430              1.6761429             -3.2553096
Ar             -3.5280443             -0.0129637             -3.9995379
Ar             -6.0296810             -2.7642403              2.2394778
Ar             -1.1081652             -2.1914231             -5.9535174
Ar              5.6645313              1.1793574             -0.1266992
Ar              3.8640691             -5.8025548              1.3190592
Ar             -1.9497081              5.8498068              3.3511566
Ar              3.8596537             -4.4173079             -2.2344670
Ar              5.8807523             -2.6326854              0.5371734
Ar             -5.9154771              2.1770964             -2.0133747
Ar              5.3958221              3.7119050              2.7532233
Ar              1.7193901              4.7816144              3.0772216
Ar              2.3914638             -1.7417975             -4.5118177
Ar             -3.3566003             -3.7921398             -3.3142675
Ar             -5.7875084             -1.5755542             -1.3539128
Ar              2.8437522             -2.4772401              2.7747105
Ar             -2.3929410              3.3996046             -2.7396454
Ar             -2.8268856             -3.1739666              0.3498510
Ar             -3.9452555              4.0280770              0.6674182
Ar             -0.4029188              5.2453101             -0.0518876
Ar             -0.5400039              3.3254853              5.8199966
Ar              0.3469598             -4.8681835             -3.6882318
Ar             -0.7639030             -3.7187564              3.5290611
Ar              0.0170637              1.2193218             -4.7137477
Ar              0.4218604             -0.1946655              4.7909577
Ar             -4.0951700              2.8388872              4.2807668
Ar              3.2624474              4.1390699             -0.3421530
Ar              2.6397834              1.2857832              2.0827411
Ar              5.8755869             -1.2904311             -3.0342229
Ar             -1.8691308             -6.5066313             -1.0534579
