42
Energy:            -184.2882
Ar             -0.0386705              0.7511092             -0.0308698
Ar              0.7724118              0.1107192              3.8738108
Ar              1.3787436             -2.0367160             -2.2433821
Ar              2.0265352             -2.1903978              1.4195224
Ar             -2.0962822              1.1815035             -3.0982874
Ar              1.5954602              3.3320987              2.4826463
Ar              1.4231499              1.3884577             -3.5858530
Ar             -2.0380800              2.1070798              2.7757061
Ar             -1.8357704             -1.6921945              2.0035137
Ar             -2.2179385             -2.2565393             -1.6932922
Ar              2.9103259             -5.1819830              3.4314459
Ar             -2.5252518             -1.5444663             -5.4987568
Ar              4.3086142              0.6591809              2.8296640
Ar              3.4794328              0.5808282             -0.6944122
Ar              4.4887897             -0.7055181             -4.0858523
Ar             -2.4698736             -0.4028177              5.6028142
Ar              1.2421272             -1.5029098             -5.9450285
Ar             -5.1558385              3.2112220             -2.3658730
Ar             -3.8636314              0.6469092             -0.0204062
Ar              0.7000741             -0.5475860              7.5504333
Ar             -0.1128302             -3.3376830              4.8694580
Ar              3.4254786             -1.9573148              5.3641573
Ar             -5.2832724             -0.0245838              3.2566400
Ar             -5.3869628             -0.6985679             -3.0949648
Ar              3.2231154              1.7585544             -6.7372061
Ar              5.0778028              3.6167231              0.6366338
Ar              4.8204273             -2.9176994             -1.0741783
Ar             -5.2541169              3.6196015              1.6635099
Ar             -0.5333619              2.8534667              6.0706573
Ar             -4.3929217              2.9196179              5.4871937
Ar             -0.7130118              1.6602334             -6.6168224
Ar              6.9787824              0.0796175              0.1557812
Ar              3.1265801              1.9930434              6.0589394
Ar             -5.1917649             -2.7655550              0.5803825
Ar             -4.0677806             -3.5519413              4.2568410
Ar              4.7848718              2.9917100             -3.2185996
Ar             -0.7368368              4.4744223             -4.0221477
Ar             -0.5320887             -4.4924598             -4.2877769
Ar             -1.9652509              3.9274404             -0.4571670
Ar              5.7187560             -2.7564737              2.5049756
Ar             -4.4447564              1.8050982             -5.8649964
Ar              1.7411626              4.0382643             -1.1248030
