42
Energy:            -188.0112
Ar             -1.0645046              1.2982871              1.3263572
Ar              2.2647809              2.9305595              0.4569280
Ar             -0.5288614             -0.6723086             -1.7278771
Ar             -2.8138311              3.3532580              3.9288150
Ar             -1.1692079             -2.2932297              2.2791722
Ar              2.9584037             -0.2148354             -1.2122065
Ar             -2.7634806              2.0656423             -2.4952610
Ar              1.3601601             -3.2243330             -0.0814857
Ar              2.1158601             -0.2128681              2.3484373
Ar             -3.6928641             -0.7874020             -0.1023369
Ar              0.9192637              3.3128451              3.8494101
Ar             -4.0480019             -0.1716828              3.4764757
Ar             -0.3296062             -5.9408749              1.7159796
Ar              2.2354954              5.7694634             -1.9182475
Ar              2.7025134             -0.4567425             -4.7966087
Ar             -3.5658624             -1.6343657             -3.7042933
Ar             -2.2053503             -4.0251714             -1.0432223
Ar             -6.2643411              0.7783577             -2.2406331
Ar              0.7204447             -6.2852431             -2.0353433
Ar              2.8227014              0.5755095              5.9722506
Ar              4.6239289              2.7056908             -2.7093063
Ar             -1.1989480              5.3047344             -3.8686632
Ar             -6.6277239              2.5083514              3.8238778
Ar             -4.6420095             -3.6756918              1.9857255
Ar             -4.5648896              2.6500785              0.7212708
Ar              5.0007996             -2.7088799              0.5341468
Ar             -0.9229125              0.3503590             -5.3780604
Ar              3.4499143             -6.1602298              0.5980684
Ar              0.9300901              2.4388144             -2.9333634
Ar              4.5598757              2.7339276              3.4530575
Ar             -0.7112733              0.1898934              4.9750059
Ar              6.1602834             -0.8687888             -2.8303868
Ar              0.0471805             -3.2499289             -4.1716962
Ar             -4.4489056              5.3400885             -1.8730246
Ar              5.8978454              1.0155172              0.5089196
Ar              5.4488628             -0.9933162              3.7858672
Ar              2.4502972             -3.6983648              3.4268521
Ar              3.6074937             -3.6926626             -2.8968053
Ar             -1.0809938              4.5969459             -0.1686800
Ar              5.4096128              4.8374261              0.3165552
Ar             -6.2078085             -3.0930711             -1.4313303
Ar             -7.0731243             -0.4142474              1.2895051
