42
Energy:            -187.6281
Ar             -1.2077834              0.2552842              1.4200710
Ar             -4.3860361             -1.3317205              2.7887828
Ar              1.0173818             -2.3694116              0.0479537
Ar              1.4400469              2.0794899              5.6243404
Ar             -1.1203595             -3.0175437              2.9343363
Ar              1.7249809              2.5217495              1.8093215
Ar             -1.2174656              3.5127267             -0.0912376
Ar             -2.7167005              0.7185987             -1.9597275
Ar              3.9374712             -0.1687488              0.4347227
Ar              0.4763020              6.1828613              1.7698243
Ar             -2.6793184             -2.6914530             -0.3494699
Ar              1.7529987             -0.8387546              3.3667467
Ar             -0.9286669             -6.3265771              4.4338041
Ar             -4.3598114              2.2040063              1.3942613
Ar              2.2041682             -4.5791854              2.9396704
Ar             -4.3330088             -2.2573319             -3.6592430
Ar             -0.6249173             -5.7763864              0.5699908
Ar              4.7103278              1.4484119              3.8363264
Ar              2.0570766              4.6795445             -1.3323028
Ar             -1.5489875              6.7205960             -1.7497268
Ar              3.3119898              4.9547495              4.0603480
Ar              5.1418753              3.3358361              0.6038314
Ar             -4.0243480             -5.1449190              2.3323660
Ar             -1.4599715              3.3757896              3.6052282
Ar             -5.8896257             -0.6065785             -0.5784976
Ar             -0.5113973             -1.9887586             -3.3409806
Ar              3.2662678             -1.6952210             -2.9418664
Ar              4.4150236             -3.8871385             -0.0464335
Ar              5.1946295             -2.2731438              3.3106868
Ar              1.5870469             -5.0685864             -2.4120928
Ar             -3.4306445              5.9443530              1.5066295
Ar              7.4474707              0.3039445              1.5218454
Ar             -3.2962700             -3.5199205              5.8137707
Ar              1.0356128              1.0059998             -1.5792005
Ar             -1.5884647             -0.0998682              5.1393561
Ar             -4.3599626              4.1195650             -1.9063199
Ar              4.1680971              6.8899710              1.0070425
Ar              3.6341261             -0.9407750              6.5594396
Ar             -5.9492434             -4.3725093             -0.8422032
Ar              1.6134756              8.5096498             -1.1209191
Ar              0.5822410             -3.1399969              6.1660122
Ar             -0.8401525              3.5177767             -3.7409466
