42
Energy:            -190.5668
Ar             -0.3418001             -0.0375931              1.7589564
Ar             -1.8793695             -0.7060258              4.9849654
Ar             -0.7631758             -2.5548076             -0.8210065
Ar              2.5411914             -1.9989580              0.8121999
Ar              1.1825519              0.5516030             -1.5188545
Ar              2.7548155              1.1579937             -4.8841299
Ar              0.1086296              2.6037489              4.2100626
Ar             -0.2861862              3.3311028              0.4595016
Ar             -2.5164939              0.7315247             -1.0271592
Ar             -3.2453931              2.0192595              2.5204017
Ar             -0.2764477             -3.4967364              2.8205300
Ar             -5.4897884              2.8323343             -0.4199757
Ar              3.3959912              4.4697878              4.0208487
Ar              4.1717729             -1.4363025             -2.5037587
Ar             -2.9946232             -1.8247776             -3.7169375
Ar             -6.5833148              0.3292506              2.2093157
Ar             -1.1944821             -5.1671149             -3.4865106
Ar              5.8697757             -0.3323385              0.7442790
Ar              0.3947887             -3.4393143              6.4718180
Ar             -0.2553942              6.8447660             -0.8861824
Ar              2.6655117             -5.5752722              1.8562794
Ar              4.9213573             -2.9132950              3.4828197
Ar             -4.7729761              1.5332194             -3.9231277
Ar              0.1885001              6.1322448              2.8133366
Ar              2.9528430              5.1629366              0.3129997
Ar              2.1883480             -4.6227503             -1.8162544
Ar             -3.9865466             -4.3562693             -1.0213805
Ar             -5.7859687             -0.9858919             -1.2572482
Ar              2.0235484             -0.7303137              4.4420433
Ar             -1.0146310              1.3460351             -4.4095681
Ar             -3.5318478             -1.7556977              1.6647646
Ar             -2.5213635              4.2009085             -2.4066429
Ar              1.2574648              4.0077868             -2.8872915
Ar              6.1328089              3.4192837              1.5460294
Ar             -0.7187195             -6.1262652              0.1571820
Ar              0.7834513             -2.0084001             -4.1875113
Ar              0.7127358              5.5107450              6.5185645
Ar             -3.2176763              5.5023941              1.1183975
Ar              4.4593502              2.2825473             -1.6723025
Ar              2.8558402              1.6583367              1.6645594
Ar              5.5481407             -4.0410699             -0.1135690
Ar             -3.5050731             -5.3663500              2.6212133
