42
Energy:            -186.4471
Ar             -2.8457626             -0.4079438             -0.1473737
Ar             -0.4898107             -0.1781792              2.5612586
Ar              1.9276301              0.9111945             -3.1252243
Ar             -5.2217867              0.8848692              2.3764219
Ar             -0.9094372              0.6122190             -5.7522725
Ar              1.8606210             -1.2995291             -0.0652589
Ar              3.1934557              0.8806470              2.9216819
Ar              1.7992450             -4.2919743             -2.3350086
Ar             -0.9100861             -3.5856501              0.3632281
Ar              5.3981584              1.8456008             -4.0468338
Ar             -2.5484580              1.7059511              4.9299226
Ar             -6.4371094             -1.0525824             -0.6507950
Ar             -5.0409249              2.4607551             -1.2854932
Ar              2.0170788             -2.4341863              4.0047915
Ar             -1.4762773             -1.9135433              5.7077301
Ar              1.0831224              2.2252431              0.2008428
Ar              4.6635703              1.3148774             -0.4227280
Ar             -2.3471587              3.0191365              1.2827627
Ar              0.5304424              3.5435242              3.5957704
Ar              0.4239159              4.0155372             -4.7723856
Ar             -0.7335030             -1.6555597             -2.8182882
Ar             -1.4739089              2.0465761             -2.3346702
Ar              4.5447895             -1.6524735             -2.6251056
Ar              1.8812139             -2.0373963             -5.4051828
Ar              2.4437935             -4.8835998              1.3055521
Ar             -3.5539877              3.3360969             -5.0169832
Ar              3.1364276              4.3063264             -2.1508733
Ar              1.0649298              0.7375417              5.9839890
Ar             -3.6239746             -2.5679376              2.6593484
Ar             -3.8946370             -3.5773340             -1.8405822
Ar              5.3272175             -4.9632113             -1.1141064
Ar              3.6822556              4.4369506              1.6056957
Ar             -0.7283475             -4.9960864              3.7424227
Ar              2.6599137              1.4643570             -6.7012931
Ar              4.5920128             -4.6510068             -4.8765903
Ar             -4.1070339             -0.2634441             -3.7250157
Ar              3.9612681              4.8814712             -5.7796921
Ar              5.0963174             -2.0803602              1.3834796
Ar             -4.0200214             -4.6890722              5.7264561
Ar             -0.3621944              5.3673274             -1.1261743
Ar              5.4086021             -1.1706166             -6.2761167
Ar             -5.1328662             -0.9783900              5.6984408
