42
Energy:            -194.6897
Ar             -0.8605093              0.8232446             -0.6954816
Ar             -1.3531742              1.7954524              2.7500486
Ar              2.0831610              1.4936008              1.3140394
Ar             -1.3935638             -2.6863253             -1.3216282
Ar             -0.2733505             -0.2905531             -4.1115628
Ar             -3.5055468             -0.8012427              1.1142605
Ar             -6.5612632             -1.7269504             -0.7464467
Ar              5.1181176             -0.6254201              0.8252310
Ar              0.0529396             -1.5663210              1.9274560
Ar              1.9877932              2.2589453             -2.3266412
Ar              5.0604736              3.0047671             -0.3293918
Ar             -3.8168175              0.0165511             -2.6543948
Ar             -1.6409703              3.2097775             -3.3351816
Ar             -2.6653562             -3.2573159              3.8124086
Ar              2.7600313              1.1676614             -5.7877238
Ar             -1.9724851             -6.3297820             -1.9936267
Ar             -0.6949411              5.3211675              3.6422742
Ar             -4.3847061             -3.6611883             -3.2555057
Ar              5.0291795              0.1580299             -2.9019069
Ar              2.8117777              5.8026826             -1.6036915
Ar              1.6370891              2.5441650              4.8572996
Ar              2.0536530             -1.2854037             -1.1990552
Ar             -6.2866244             -2.4797064              2.9844776
Ar              1.5594611             -4.9097834             -1.8846205
Ar              3.0274536             -3.7460783              1.4445107
Ar             -4.3204955              3.8337945              3.5446703
Ar              0.9647186             -4.0157033              4.6244044
Ar             -6.5409075              1.1643150              1.8678002
Ar             -0.5036924             -5.1900387              1.3157707
Ar              5.0686533             -3.4505967             -1.7415417
Ar             -3.7920575              2.8762366             -0.0666166
Ar              2.7547108             -2.4740306             -4.6190485
Ar             -4.1476891             -4.4288928              0.4979480
Ar              2.8391360              5.0078911              2.1377065
Ar              5.1302838              2.2129955              3.3777132
Ar             -4.1122029              0.1700503              4.6672970
Ar             -0.7908034             -3.9555355             -4.7440366
Ar              1.3934247              4.7038474             -5.0296578
Ar              3.0588370             -0.9051947              4.0138649
Ar             -0.2240862              4.3232768              0.0531462
Ar             -0.4637997             -0.5881947              5.4799139
Ar              4.9570548              3.7787284             -4.0472266
