42
Energy:            -192.1004
Ar              0.0653739             -0.2695722              1.7363604
Ar              0.0542818              0.6900704              5.2564132
Ar              2.1912218              1.7340284             -0.4969266
Ar             -1.5050049              2.2061137             -0.5117267
Ar             -0.0323631             -0.8752528             -1.9397350
Ar             -3.1181071             -1.0663350              0.1371169
Ar             -0.4505704             -3.6055766              0.5258711
Ar              2.8727105             -1.8396267              0.1409605
Ar             -3.2575395             -1.7731087             -3.5457475
Ar              0.6195063              4.3454521              5.9772465
Ar              0.4925025              3.2526628              2.4325272
Ar              4.4778459             -4.3608274              2.2447161
Ar             -3.6879664             -4.5852522             -1.0358254
Ar              5.1715552              0.1006799             -2.0601672
Ar             -1.0961981              5.8297634              0.2272955
Ar             -5.5207632             -3.1487423              2.0285508
Ar             -0.4844379             -4.3866832             -3.1164641
Ar             -6.4126445             -1.9462081             -1.4570297
Ar             -0.8753576             -7.1565501             -0.5344184
Ar              0.6534759              4.2679460             -2.7670224
Ar             -6.1722119              0.6317430              1.3580844
Ar              5.8269584             -3.6022841             -1.2978146
Ar             -2.8937707              1.4924639              2.9764121
Ar             -4.7808885              1.4182702             -2.1068420
Ar              4.4296436              3.7660000             -2.7381950
Ar              5.5123317              2.7281490              0.7628517
Ar              6.2530793             -0.9718013              1.4272053
Ar             -2.7605796             -5.7676057              2.4694311
Ar              2.8807533             -2.6064657             -3.5045328
Ar              0.9537321              6.9121409              3.2149406
Ar             -1.6145035              1.5964440             -4.2167599
Ar              3.3030833              0.7070392              3.0560910
Ar              2.4884639             -5.4011141             -0.9193215
Ar             -2.2755120             -2.2273354              3.7085175
Ar              2.7050125              5.3438233              0.2430453
Ar              3.7770860              4.3744749              3.7546377
Ar              2.1770772              1.0878864             -4.1899180
Ar              1.1249889             -6.1596297              2.6195753
Ar             -4.4850439              4.0267142              0.7046558
Ar             -0.0945549             -1.5807640             -5.6383672
Ar             -3.1206289              4.7573845             -2.7773425
Ar             -2.4184249              5.1476183              3.7284463
