42
Energy:            -184.8796
Ar              0.6331861             -0.4288545              0.8129891
Ar             -0.8340514             -2.1732748             -2.0493289
Ar              3.9425537             -1.9762217              2.1059502
Ar             -2.6783893              1.1501399              1.2926494
Ar             -2.2491185             -2.3635428              2.3316278
Ar              0.2728785              2.2385760              3.2921765
Ar             -2.4385877              1.1913302             -2.3310480
Ar              2.9712665             -2.2433652             -1.3929702
Ar              3.8868746              1.0987902             -0.0225333
Ar              0.8592909             -1.6214022              4.2320877
Ar              2.1405323             -2.1300462             -4.9729293
Ar             -1.0573848              3.8524410              6.4041629
Ar              1.2738824              0.6741882             -2.7127172
Ar             -0.3629166              3.8218704             -3.8586502
Ar             -3.9522237             -1.7741552             -4.2798644
Ar             -2.2964865              0.3744553              5.0509927
Ar             -2.4092248             -5.0599101             -0.4437593
Ar             -0.9176650             -0.0427002             -5.5578270
Ar              0.2960140              3.0162420             -0.2313293
Ar              0.8293026             -4.0491727              1.1269072
Ar             -0.1836053              5.7915305              2.2823602
Ar              3.2549242              3.7653492             -2.4403979
Ar              3.2249873              4.4814068              1.3973071
Ar             -1.0976005             -4.0018340             -5.2505556
Ar             -2.8936647              4.6550042             -0.4256446
Ar              2.1569529             -5.7627825             -6.0388609
Ar             -0.7655614             -5.0776371              4.3943870
Ar              3.7957480              1.3868456              3.6757171
Ar              4.1658245             -5.3691994              0.2338464
Ar              4.1650367             -1.6608777              5.8989005
Ar              1.1459862             -5.3038509             -2.4134660
Ar              0.8362383              6.4553017             -1.3814058
Ar             -4.3095810             -1.6616931             -0.6142191
Ar              4.8219267              0.2613275             -3.6116713
Ar              2.2961434              1.9963596             -5.9438264
Ar              2.3974219              4.6563171              5.0887191
Ar              2.9877922             -4.9115431              4.0982478
Ar             -3.2575277              4.0225072              3.4303106
Ar              2.4143368              5.8394218             -5.3741864
Ar              1.5041730              1.1215732              6.6528238
Ar              4.7654459             -4.5765731             -3.5646463
Ar              5.6255922              3.6186694             -5.3176030
