42
Energy:            -187.7670
Ar             -0.9962954             -0.0202681             -0.8733475
Ar              1.5012349              2.6117666              0.4710947
Ar             -4.9295719             -1.1403294              0.1871120
Ar              0.9003274             -3.0637103              0.4996570
Ar             -1.9853703              2.0524331              1.9164131
Ar             -1.5468319              1.2252686             -4.4846149
Ar             -1.2522572              3.6552153             -1.5446273
Ar              1.7177082              1.8711328             -3.0322661
Ar              0.7280812             -2.2528291             -3.1221260
Ar              3.1752070             -0.4994565             -0.6717633
Ar             -2.3096714             -3.4830522             -0.8927359
Ar             -3.5172183              4.5735366             -4.3460266
Ar              1.0237339             -0.1815891              2.4945091
Ar             -1.3498801             -2.2163847             -6.2214698
Ar             -1.1681814             -5.7177542              1.9499273
Ar             -4.7552627             -4.6241484              1.6999333
Ar              0.1930337              4.6606810             -4.9144513
Ar              4.4252618              1.3846191              2.4266157
Ar              2.0607431              5.5136361             -1.6937725
Ar              4.0443322             -2.4555950              2.4104978
Ar              1.4574727              3.1059456              4.1368304
Ar              0.8767698             -5.2377428             -5.3819961
Ar              2.6320462             -6.0195986              1.7031517
Ar              3.7596397             -4.1326470             -1.4923834
Ar             -2.1548984             -1.9269885              2.5006474
Ar             -1.1065214              0.5153326              5.3553885
Ar              3.6622994              5.2162335              1.8219014
Ar             -4.3449477              1.8304607             -1.8531783
Ar              1.7440127             -0.1185771             -6.1037546
Ar              0.8713767             -3.4375411              4.2571030
Ar              4.9475639              0.2827130             -3.8731041
Ar              0.3614392             -5.9499733             -1.7025553
Ar             -3.8178046             -1.4781108             -3.4984902
Ar             -1.9875319              4.3331915              4.8459508
Ar             -0.2831351              5.5999575              1.5534027
Ar              2.8683507             -0.3001584              5.5919476
Ar             -5.7601792             -4.3195721             -1.9561891
Ar             -3.2542124             -7.0600123             -0.9252708
Ar             -2.6376791             -5.0883712             -4.1391029
Ar             -1.2725981              7.2164480             -2.3725906
Ar              3.8709852             -3.0611877             -5.0767049
Ar              4.8356156              2.9118640             -1.0860825
