42
Energy:            -187.8274
Ar             -1.3727635              0.4466230             -0.0054029
Ar             -3.1554264              1.3709375             -3.1969691
Ar              0.3425303             -2.5303964             -1.7571821
Ar              0.6499862             -1.4433377              5.4906486
Ar             -2.3937508             -0.3098910              3.4089957
Ar              1.1616729              1.0143153              2.7800012
Ar              1.6955468              3.0313628             -0.0645145
Ar              0.6447885              1.1216611             -2.8802029
Ar             -1.7886132             -4.1523676              3.9503835
Ar             -5.1177346             -0.6734214             -0.6551095
Ar             -2.6113401             -3.0869437              0.3068416
Ar             -0.8744317              3.4729782             -5.3629046
Ar              0.5115458             -2.2861458              1.8544991
Ar              3.0234437             -1.4548589             -4.0351879
Ar             -1.2322293              3.6126325              2.0378628
Ar              3.3356093              1.5319913              5.6398882
Ar              4.4387885              5.3648942             -0.1025831
Ar              2.0313350             -4.7792801              4.0481943
Ar              0.7314281              6.5217973              0.5034412
Ar              1.9563346             -5.7964009             -2.5119177
Ar             -3.9374645              3.1571209              4.4315574
Ar              2.5775821              1.9279401             -5.8739178
Ar              3.8630665             -1.4688112              3.2966472
Ar             -5.2204229             -3.0511320              2.8449865
Ar              3.4241795             -4.0253498              0.4221604
Ar              0.0794042             -3.9002230             -5.1709658
Ar             -0.7455583             -0.3283063             -5.8771233
Ar              2.1981680              4.5123955              3.4000930
Ar              4.3881202              2.0916609             -2.4838086
Ar             -3.5990094             -6.4285311              1.4131355
Ar             -0.4865919              2.3259257              5.7018372
Ar             -2.9400466             -2.2740994             -3.3880861
Ar              1.9632015              4.8473823             -3.2433457
Ar             -4.3339897              2.8187056              0.2877396
Ar              0.1015112             -5.7702233              0.8760070
Ar             -1.8486833             -5.6795874             -2.2877099
Ar              2.9165982             -0.4277478             -0.2518979
Ar             -1.3977813              4.1969396             -1.6541230
Ar              4.6926745              2.0460346              1.9338140
Ar             -6.0450555              0.5764672              2.7653670
Ar              5.7505226             -4.7367184              3.3076026
Ar             -1.0459615              5.9836884              4.8248116
