42
Energy:            -189.2938
Ar             -0.0184163             -0.7272673              0.6871112
Ar              2.7876396              4.4263581             -1.3280874
Ar              2.8321863             -1.8199333             -1.4129747
Ar             -0.4039160             -3.6736521             -1.5495004
Ar             -2.4048763              1.1673271              2.5849323
Ar             -0.0949969              3.2575327              0.6245896
Ar              2.9641552             -2.0354328              2.3979406
Ar              2.9078036              4.3360854              2.6125907
Ar             -1.1500672             -1.6777949              4.5032215
Ar             -2.0316194             -1.0624157             -3.5253764
Ar              0.7683812              1.1561581             -2.3706024
Ar             -1.0803491              4.3609172              4.0153394
Ar             -3.8341195             -4.1670732              3.4500753
Ar             -3.6265220              4.3829824              1.0680602
Ar             -4.1055183             -3.9911404             -2.7839303
Ar             -1.1890939              4.1860831             -2.9590773
Ar              2.9478742              1.2574020              0.5805664
Ar              1.1110656              1.2089278              3.7891858
Ar              1.4590142             -1.4476411             -4.8704204
Ar              4.5491187              1.2997693             -2.7236754
Ar             -0.6521917              1.5167169             -5.8613525
Ar             -4.9162269              3.1460064              4.4021623
Ar              5.1301472             -1.9941802             -4.4076699
Ar              5.8245556             -4.1089077             -1.4133475
Ar             -3.3046887             -2.0253481              0.4241307
Ar             -0.2857277             -4.1987621              2.0940843
Ar              4.9740214              1.1040778              3.5912093
Ar             -4.0531321              1.9520640             -4.4966278
Ar             -2.7759810              1.4069482             -1.0185345
Ar              2.6491299             -5.2067405              0.1603356
Ar             -4.8994675             -0.7431884              4.4531986
Ar             -0.9937672             -4.3258644             -5.1415295
Ar             -6.7514775             -2.6039856              1.4312942
Ar              6.0182446              3.1873417              0.4121892
Ar             -3.0118412             -5.8617795              0.1998563
Ar             -5.7979717              1.0402052              1.2677225
Ar              6.0142388             -0.7177197              0.2693310
Ar             -5.9928548              3.3119725             -1.6615261
Ar             -5.6858145             -0.6142336             -2.1177027
Ar              2.5922051             -4.8148142             -3.6166196
Ar             -2.0469801              1.4728198              6.2645817
Ar              2.3173476              3.4730650             -4.8830781
