42
Energy:            -188.6720
Ar             -0.2249666             -0.2788266             -1.1083121
Ar              0.1134796             -2.8793349              1.8268081
Ar              0.8902784              0.4678377             -4.9570598
Ar              1.7318050              2.5902724              0.7117307
Ar              1.7802142             -3.2587304             -1.5380455
Ar             -4.2123654             -0.5660223             -1.5463083
Ar             -2.0246435             -3.5627268             -0.9154436
Ar             -3.1665921             -1.1856460              1.8796567
Ar             -2.1841872              2.3815932              0.2034086
Ar             -0.1605343              0.5206534              2.8115886
Ar              0.4777937              3.1400861             -2.4855035
Ar             -4.8618973             -4.0127655             -3.2479657
Ar              2.8491758             -0.7553983              1.1064808
Ar             -5.3253213              3.1576794             -1.7954431
Ar              3.7991402              4.6768238             -1.4397429
Ar              3.1754636              3.5171417             -4.9715180
Ar             -5.5864581             -3.5769976              0.4158764
Ar              2.1978160             -1.7667250              4.7230114
Ar             -2.7916420             -4.9276272              2.6342155
Ar              3.1863161              1.7757306              4.0115378
Ar              3.5064060             -4.2628526              2.1339428
Ar             -3.1585211              5.5040708              1.7190755
Ar              3.5730919              5.2468076              2.3697841
Ar              0.0142858              4.1585558              3.5674241
Ar              3.3903735              0.7586127             -2.1823084
Ar              5.4439460             -2.5126060             -0.7150309
Ar              0.6089170             -5.3442676              4.4441801
Ar             -1.7760474             -1.9614248             -4.1803392
Ar             -5.7613940              1.3773472              1.3958391
Ar              5.3861530              1.9688141              0.8792344
Ar              0.0919944              1.2806072              6.3230508
Ar              0.3445397              5.8988567              0.1755983
Ar             -2.5464130              1.7197516             -3.8293188
Ar              3.9477262             -6.2193565             -0.9990511
Ar              0.3068593             -6.2564813              0.5117102
Ar              5.7365993             -1.1865064              3.2285389
Ar             -0.5238933              4.1355049             -5.8712378
Ar              1.1824499              6.5984555             -3.4884183
Ar             -2.3909106              5.3707953             -2.3392750
Ar             -3.6590830             -6.8089958             -0.5616246
Ar             -3.1737298              2.1800043              3.9685648
Ar             -1.5405010             -2.1107545              5.1163701
