42
Energy:            -193.4044
Ar             -1.8617247             -0.3064413              0.4457719
Ar             -3.3714241             -3.5656056              1.0438895
Ar              0.5005779              0.8597404              2.9167241
Ar             -0.1945813              2.8306104             -0.2119959
Ar              1.7209558             -0.3481887             -0.3947191
Ar             -0.8723605              0.4239647             -2.9553160
Ar             -0.5924389             -3.0228212             -1.5693727
Ar              0.2733248             -2.7544775              2.0443931
Ar              2.7589713              0.3960665             -3.8843020
Ar             -5.3850295             -0.2224174              1.3441148
Ar             -2.9042178              2.5473606              2.4451226
Ar             -1.1316539             -6.1074781              2.6945655
Ar              0.1242253              1.1935922             -6.4927015
Ar              2.7284509             -1.6185492              4.6185424
Ar              3.0409821             -3.1371536             -2.4717684
Ar              0.6896771             -5.8599297             -3.6706566
Ar             -2.7633927              3.0143529             -4.7963184
Ar              2.4560193             -5.3125550              3.7209463
Ar             -2.0624502              5.4958591             -1.9371282
Ar             -3.8392387              2.2282703             -1.2755555
Ar              0.8377435              3.6739705             -3.6877806
Ar              2.9679253              2.0691942              5.4702855
Ar              2.2079298              4.0696833              2.2636991
Ar             -3.0451827             -0.7739941             -5.6890136
Ar             -0.1223115              0.1191855              6.4774766
Ar              1.5446482              6.1115534             -0.8499521
Ar             -0.3888928             -3.6062815              5.5903088
Ar             -2.7565652             -4.3332096             -4.2620293
Ar              3.9276303             -2.8660720              1.2295271
Ar              5.6653961              3.9915808              3.6129695
Ar              3.4828950              2.8609220             -1.0546151
Ar             -2.6272576             -1.1097628              3.9086009
Ar              1.5771696             -5.6130020              0.0269078
Ar              0.4057430             -2.3438434             -5.1070525
Ar             -4.1071143             -1.5207559             -2.1459281
Ar             -0.3968980              3.7622781              5.0199535
Ar             -3.4755003              1.8293613              6.0761986
Ar              2.7715848              5.8508186              5.4719914
Ar              4.1765282              0.8348557              2.1127566
Ar             -2.0151808             -6.3953703             -1.0388952
Ar              5.3880428             -0.4055542             -1.2601140
Ar             -1.1206837              5.7945724              1.8505814
