42
Energy:            -184.9911
Ar              0.5424208              0.4510961              0.6315070
Ar             -1.0698173             -0.1520188             -2.4453382
Ar              2.4482885             -1.3873002             -1.8098470
Ar              2.5375166             -2.4283072              1.7464428
Ar             -1.6485341              2.1753430              2.8023660
Ar             -0.7161072             -2.9687000             -0.0889165
Ar              1.5271380              2.5039810             -2.2010844
Ar              1.1937419              4.0890678              1.2127531
Ar             -1.8239754              3.0141308             -0.7531444
Ar             -0.5748456             -1.3620053              3.5473066
Ar              1.4665581             -0.0019366             -5.0341787
Ar              1.7921388              1.4460591              3.8508712
Ar             -2.5582529             -0.7832476             -5.6627609
Ar             -4.1186850             -0.0936246              4.2704701
Ar             -3.9014444              3.8922879              5.0470319
Ar             -1.4650786              2.8027078             -4.5548994
Ar              2.7440336             -4.0452210              5.1059617
Ar              0.0586189              4.7247435              4.7928274
Ar             -0.2738033             -3.4163268             -3.8233699
Ar             -3.1857271             -0.3465305              0.6129290
Ar              2.2959460              2.7901283              7.2179399
Ar              4.1360007              0.8918888              0.7578680
Ar              0.0830452             -5.1465260              2.7419468
Ar              1.6028637             -0.9535732              6.6898262
Ar              2.1349126             -5.0209172             -1.2645566
Ar              3.2949143             -3.3059273             -4.8866582
Ar              4.4685465              4.2661489             -0.7625354
Ar             -4.7716087              4.9850661             -1.6359087
Ar             -0.9972041             -3.8393146              6.1698719
Ar              4.4385290              3.8698004              3.1376906
Ar             -0.3693859              1.3776151             -7.9110189
Ar              2.1470604              3.5572852             -5.7257076
Ar             -3.3785763             -3.5475330              2.6140883
Ar              4.6710171             -0.7584708              4.3109931
Ar             -5.0150418              2.7770894              1.4380429
Ar              0.3275197             -2.5236760             -7.4608244
Ar             -3.7725297             -2.6280367             -2.3726890
Ar             -2.4242656              5.6361551              1.8441363
Ar              4.7496583              1.1727212             -3.2720739
Ar             -1.2235875              1.3917624              6.3288465
Ar             -4.5009762              1.2084326             -2.6239637
Ar              3.7416841             -5.9736071              2.0148355
