42
Energy:            -190.6589
Ar              0.7870151             -0.2516062              1.3906719
Ar              1.9579907              0.4932456             -1.9688741
Ar              0.3549158              3.1121989              0.1522096
Ar             -1.6954994              0.3377643             -1.2292300
Ar             -4.2530965              0.9353772             -3.9341076
Ar             -0.6402859             -1.0014298              4.6509930
Ar             -2.2554845             -2.2010403              1.4130704
Ar              0.3619700             -2.7830913             -1.1721547
Ar              1.0841780             -3.6919683              2.4785878
Ar              3.7795783              1.7796371              1.1005111
Ar              0.6358414             -6.3333192             -0.1958769
Ar             -3.7306859             -3.1117079              4.6938139
Ar             -2.1826198              3.7873302             -2.5282339
Ar              1.5508674             -2.0803577             -4.6435727
Ar              4.0678397             -5.5655734              1.2242831
Ar              3.1700971              1.2733459             -5.4407473
Ar             -2.7681723              4.9570199              1.0439444
Ar              4.0916839              4.6194575              3.4920798
Ar             -5.4104481             -4.2426045              1.4775742
Ar              3.3454111              5.2795842             -0.1887872
Ar              0.6378907              5.8980650              2.5522845
Ar             -0.0854639             -5.4134012             -3.8195318
Ar             -5.4490021              3.2364567              3.1938781
Ar             -5.4237572             -0.5202527              2.3798809
Ar              1.5445247              3.9619181             -3.2877308
Ar              4.9873235             -1.2307378             -3.2312802
Ar              3.3495994             -4.6048348             -2.4021599
Ar              1.1046404              2.3787957              3.8726526
Ar             -2.1701284             -2.2404499             -3.8755052
Ar              3.7729996             -1.9833187              0.2426381
Ar             -2.7540638             -4.8458726             -1.1725652
Ar             -4.8473270             -1.6491851             -1.2248001
Ar              1.9056750              0.4114323              7.0235806
Ar              4.9862733              2.5860781             -2.3693175
Ar              3.4132801             -0.8498215              3.8315484
Ar             -0.5393122              1.1040546             -4.6869751
Ar              1.8258796             -3.3793359              6.1537402
Ar             -2.0388084             -5.7559485              2.4704681
Ar             -4.8384351              2.0770091             -0.3583747
Ar             -2.2635785              1.4920761              2.3483356
Ar             -0.0953621              6.6211441             -1.1149680
Ar              6.8507559              0.0898364             -0.1963670
