42
Energy:            -185.6130
Ar             -3.0062653              0.9793369             -0.3218653
Ar             -1.8377563             -2.4809997             -0.0951566
Ar             -0.6585674              3.1326156             -2.3252985
Ar             -0.7042285             -4.1767543             -3.2447497
Ar              2.6075966              3.3255785             -0.4122269
Ar              1.0896637             -4.6908140             -0.0094598
Ar             -0.5080178              3.0468323              1.3965595
Ar              0.7490159              0.1232661             -0.2337300
Ar             -3.6673520              2.8054110              3.1620356
Ar              2.3958920             -2.2033199             -2.4863800
Ar              2.4753085              1.3870154             -3.5130310
Ar             -0.8585543             -0.4206091             -3.4380260
Ar             -3.6742127             -3.3025355              3.4554293
Ar             -3.9880474             -2.2728006             -3.1912061
Ar             -3.2567381              4.8490958             -0.2207664
Ar             -1.3774801             -0.2912448              2.8458637
Ar             -4.0184836              1.6963134             -3.7350475
Ar             -5.3656983             -0.3515183              2.1517683
Ar              2.2195437              5.3658678             -3.4337999
Ar              2.5334256              1.4788894              2.8262033
Ar              2.6892530             -2.0460153              1.9706830
Ar              4.0419792              6.6825765             -0.1088707
Ar             -2.4853702             -5.8932148              1.0385182
Ar              2.6669347             -5.8462966             -3.2597026
Ar             -0.0972148             -3.9839069              3.3834550
Ar              4.5322584              0.1570566             -0.3684078
Ar              3.4189468             -5.5214388              2.9506017
Ar              2.1179758              5.1841867              2.8885262
Ar             -3.8311000             -5.9739063             -2.4005718
Ar              0.2544764              6.2808412             -0.2675784
Ar              1.2599272             -0.9860402              5.3454215
Ar             -0.2675088              2.7068481              5.0270597
Ar              4.7737242             -4.1381056             -0.3749554
Ar             -6.4770260             -0.2286092             -1.4554634
Ar              5.5283392              3.4983419              1.7766525
Ar             -1.6141159              6.0454269              3.1487373
Ar             -6.3101281              2.9097222              0.4763281
Ar             -0.3670745             -7.6461037             -1.5980697
Ar             -5.3885071             -3.5379280              0.0879927
Ar              0.4553765             -7.6958904              2.2706552
Ar              3.3222410             -7.7293834             -0.1313168
Ar              5.4194224              6.9130394              3.4299975
