42
Energy:            -191.9560
Ar              0.4334820              0.9487532             -1.1976891
Ar              0.1742942              0.4934335             -4.7992614
Ar             -2.5915779              0.6828178              0.7822053
Ar              0.7122005              1.2502120              2.4114100
Ar             -0.0734230             -2.0479640              0.8486952
Ar              3.3053206             -0.5323162              0.4229681
Ar              1.6215198             -2.2074880             -2.4578871
Ar             -2.0619254             -1.4303076             -2.2888687
Ar              2.8717620             -3.6012112              2.5195926
Ar              0.8669469              3.9997276             -3.1354999
Ar             -0.8204254              3.9668992              0.3002799
Ar             -2.3237200             -2.1162485             -5.9252991
Ar              4.6158703             -3.7817592             -0.8572172
Ar             -5.1801906             -1.7649630             -0.2921064
Ar             -0.5781031              4.3099122              4.0529622
Ar              6.5278818             -0.4933521             -1.3821020
Ar              1.1549783             -5.3200297             -0.4233616
Ar              6.3102326             -2.0584335              2.0858368
Ar              2.8875748             -5.4853747             -3.7890755
Ar             -5.7342924              0.4048464              2.8208486
Ar              5.9264310              1.7225945              1.7575675
Ar             -4.5926048             -3.9226854             -3.4029141
Ar              2.9663052              3.2609852              0.0387530
Ar              3.6683864             -0.2397183              4.1318721
Ar             -2.3794720              0.9847447              4.4975024
Ar             -5.7182404              2.0390097             -0.6223996
Ar             -8.5679245             -0.2476929              0.3838034
Ar              4.8085104             -2.2278486             -4.3398686
Ar             -2.5895375             -4.5438332             -0.2292851
Ar             -2.1446781              7.0506363              1.9190560
Ar              0.2122142             -1.7851306              4.5496839
Ar             -2.6032452              2.2818754             -2.7320419
Ar             -0.8518809             -4.7403470             -3.6040509
Ar              3.5518721              1.0929273             -3.0709003
Ar             -3.9609478              3.7330785              2.3856649
Ar             -3.9772294              5.3834553             -1.0347232
Ar             -3.1727468             -2.3735065              2.8758826
Ar              1.4116217             -2.8423030             -6.0912050
Ar              3.2388782              3.5567168              3.7952732
Ar             -0.5773161             -5.1356259              2.9441115
Ar              0.9997729              1.5658976              6.1470822
Ar              1.6423262              6.3436695              1.7586720
