42
Energy:            -184.6001
Ar              0.2891362              0.7364098             -0.4348055
Ar              2.4804066             -0.4993187              2.0789915
Ar             -3.2146935             -4.1672657             -1.3600523
Ar             -2.6024972              0.8277664              1.8237458
Ar              3.1526374             -0.6604685             -2.1879790
Ar             -2.9922704             -0.4985287             -1.5701466
Ar             -0.4220402              3.8669376              1.3917094
Ar              3.2065481              2.8554045              0.7521488
Ar             -0.7009435             -2.4040488              1.1999252
Ar             -2.1080887              3.1067512             -1.9247895
Ar             -4.2806283             -2.4337952              1.7461615
Ar              1.5800570              3.5118996             -2.5463787
Ar              5.9969840             -3.1576439             -1.4185943
Ar              5.7590633              0.0934627              0.3335631
Ar             -4.2105190              4.0728138              0.9485838
Ar             -6.9476088             -2.9523403             -0.6734666
Ar              0.0443373             -2.6566129             -2.3538634
Ar              5.1838042              2.5472276             -2.4407779
Ar             -0.2208592              0.6264507             -4.0400898
Ar             -6.2054463             -0.5362393             -3.3961662
Ar              5.3093721             -2.6801478              2.8360803
Ar              5.2771900              1.4579745              3.7175001
Ar             -5.9941052              0.6229555              0.2831245
Ar             -0.3716849             -0.5937572              4.4553788
Ar             -2.1118791              2.8454677              4.7966097
Ar              3.1844513              1.3332684             -5.3666462
Ar              7.7337785             -0.1407674             -2.8630679
Ar              1.6989993             -3.7536370              3.7999812
Ar             -7.4338302             -1.2132577              3.2172861
Ar             -5.7590029              2.1861568              3.7087051
Ar             -2.6863220             -2.1666321             -4.8528810
Ar             -5.8051798              3.1349614             -2.4173990
Ar              3.1683471             -0.8707715              5.7252287
Ar             -3.6219009              1.5371566             -5.0305428
Ar             -4.0072692             -0.7458617              5.0564196
Ar              3.1147690             -4.5126455             -3.4168377
Ar              1.4983998             -2.1006582             -5.7694100
Ar              1.6629794              2.4787822              4.1982975
Ar             -5.7871562             -4.2032252             -4.0909395
Ar             -2.0585322             -3.9576164              4.3538044
Ar              5.2279946             -1.8567297             -5.0331457
Ar              2.6771524             -3.6202092              0.1733139
