42
Energy:            -192.2562
Ar             -0.0780863             -0.4789177              1.8786220
Ar             -1.4688327             -2.5863853             -0.7187957
Ar              2.2009614             -1.9166161             -0.5533116
Ar             -0.1428567              0.7999412             -1.5485542
Ar             -0.2020557              2.1558427             -5.0694766
Ar              1.3891160              1.7506575              4.3529308
Ar              2.0538904              6.5305140             -3.2759593
Ar             -0.7187667              3.0577055              1.4274746
Ar             -3.2551562              0.4678815              0.4406583
Ar              4.8974399              0.9462389              5.4379365
Ar              0.5594844             -4.0404226              2.1415241
Ar             -5.7492456              2.0316617              2.6675910
Ar              2.1726439             -0.6484954             -4.0826028
Ar             -4.7652401             -1.6585211             -2.2287963
Ar             -2.4257260              1.0850742              4.1924371
Ar             -2.9185140             -4.7639169             -3.4157789
Ar              5.0839975              0.1249373             -1.7561533
Ar              3.9993479             -5.0646222              3.2025451
Ar              2.9005186             -5.5470343             -0.3963112
Ar             -1.2781978              6.7080145              0.8540209
Ar             -3.9809000              4.1031820             -0.0487374
Ar              5.6029791             -2.8749181              0.5479738
Ar             -6.5740317              1.4657610             -1.0123071
Ar              2.1386597              5.1768879              0.2343988
Ar              5.5526439              3.6811825             -0.4577882
Ar              0.8780954              5.4452999              3.7889490
Ar             -0.7923798              4.3911532             -2.0803323
Ar              0.8223755             -4.1017083             -3.2517719
Ar             -4.3962588             -4.6760557              0.0920930
Ar             -6.2455852             -1.5564524              1.2921758
Ar              3.2246267             -1.4079545              3.0699562
Ar             -3.4017872              1.8046985             -3.0526915
Ar             -2.9483862             -2.4888921              2.8408592
Ar             -0.8632450             -6.2345189             -0.5709373
Ar              4.2898077              3.8828636              3.1230543
Ar              0.0655299             -1.8211533              5.2531586
Ar             -1.5682382             -1.3137949             -4.2514528
Ar              6.1170880              0.6901350              1.8541412
Ar              2.6804938              2.8665702             -2.7490414
Ar              2.6877892              1.5504333              0.7521046
Ar              4.5616753             -3.4107508             -3.0686827
Ar             -2.3827211             -6.2046054              2.9093782
