42
Energy:            -189.7261
Ar             -0.0581614              0.4461282              1.1616281
Ar              1.5566930             -2.3251967             -0.5365268
Ar             -3.1203323             -0.6683603              3.2622826
Ar             -2.0590941             -2.4458234              0.2182100
Ar              1.7746759              1.1082048             -2.2590594
Ar             -1.4314038             -0.4592636             -2.7979027
Ar              2.0123958              3.2845973              0.6298405
Ar             -2.2273633              3.0373785              2.4842179
Ar              5.0262837             -0.0978027             -3.5503565
Ar             -0.2676180              0.8149263              4.9897392
Ar             -3.9120050              0.6435060             -0.1324575
Ar             -3.7038576              1.9986797              5.8379252
Ar              5.0692087             -3.1245630             -1.2796170
Ar              5.4211825              3.5472306              1.9176420
Ar              4.3708517              0.2795838              0.1434953
Ar             -4.6328062             -2.3300394             -2.4588080
Ar              1.9151166             -5.4871454              4.2485428
Ar             -4.0916890              2.2640158             -3.4700648
Ar             -0.5380829              5.9991518              0.6150835
Ar             -0.0734931             -5.5073083              0.6914202
Ar              1.4389275              4.9881500             -2.6551823
Ar              0.2255913             -2.5340012              3.0376866
Ar             -3.8313030             -5.5700700             -0.4186435
Ar              2.9950299              0.9769294              3.4479052
Ar             -0.5753358              2.6232897             -4.8314081
Ar              3.4963129              6.5617788              0.1531198
Ar              3.8683882             -2.5549554              2.4908392
Ar             -1.2296221              2.8847828             -1.1728699
Ar             -1.1725143             -4.1869917             -2.8579788
Ar             -4.4528046              4.4023873             -0.1988892
Ar              1.7774818             -2.0345829             -4.2260089
Ar              0.9836422              4.2551611              3.9770829
Ar             -2.9224402             -4.5090273              3.1827251
Ar              2.3092959             -1.8746462              5.9588578
Ar              2.3024925             -5.4191286             -2.5325491
Ar              3.1817172              2.7658853             -5.2637353
Ar             -2.2871153              5.7588155             -3.1206348
Ar             -5.6422588             -2.5005120              1.2167561
Ar             -1.5960602             -2.4939115              6.2355092
Ar              4.7887829              3.4244239             -1.8756482
Ar              3.6371517             -5.8768619              0.9041708
Ar             -5.8490673              1.9620166              2.6916039
