42
Energy:            -184.3688
Ar             -0.5368977              1.1706061              0.0781510
Ar             -3.6457819             -2.4451040             -2.0294563
Ar             -4.2212004              0.6366944              0.0724416
Ar              2.7875422              0.6700761             -1.5805487
Ar              1.7712354             -1.4250860              1.3243588
Ar              2.9516499              1.9571885              1.9167517
Ar             -1.8405719             -2.0716273              1.1873854
Ar              0.0273272             -1.7824706             -2.0244966
Ar             -2.7696772              3.1131742              2.4746917
Ar              0.5025918              3.3781628             -2.7901684
Ar              3.5562824             -3.0670110             -1.4947940
Ar              0.6049151             -4.6645320              0.1592887
Ar             -2.3162981              0.8847059             -3.2131525
Ar             -0.0843301             -2.7765906              4.3496953
Ar             -1.2204700             -5.1902020             -3.0172240
Ar              3.8354207              2.8453713             -4.4582841
Ar              2.9730165             -4.5175300              3.0245454
Ar             -0.0764217              0.9105568              3.7571130
Ar             -4.9302196             -5.8589887             -2.8969604
Ar              0.5098289              4.5295447              0.7268112
Ar             -0.7395735              6.9028432             -1.9452442
Ar             -1.8061100             -2.2365741             -5.3069077
Ar              3.4153018              5.5053876              2.8878502
Ar              3.2112251             -0.8916563              4.6502619
Ar              1.7382101             -3.4872561             -4.8133675
Ar             -3.5236640             -4.1487687              3.9099271
Ar             -0.0595546              4.8156488              4.3450808
Ar              1.0100188              0.3108761             -4.9292388
Ar             -3.6729854             -0.3254927              3.7960230
Ar              2.5736859              6.3924523             -3.6754855
Ar             -2.2147006              6.7726658              1.6332148
Ar             -3.0859704             -5.4254877              0.3491704
Ar             -0.5942265             -8.0871835             -0.5356906
Ar              3.8297247              4.2303643             -0.8939228
Ar              2.3000706             -6.5048011             -2.5826407
Ar             -2.8162894              3.9477485             -1.1063280
Ar              2.3916647              7.6590065             -0.0461818
Ar             -4.4776588              7.3103928             -1.3616940
Ar             -5.5860227             -2.6600151              1.1879367
Ar              2.7992227              2.7520827              5.5584681
Ar             -0.5778267             -6.3757317              3.1379017
Ar              4.5318445             -0.9379660             -4.4734059
