42
Energy:            -187.7056
Ar              0.3685836              0.0354792             -0.6257191
Ar             -2.5694984             -1.9163822             -1.5257469
Ar             -3.6027989             -2.0349238              2.1916182
Ar              3.8611916              0.4123138              2.2887537
Ar              0.8114584              2.3374720              2.3656893
Ar              0.7099346              2.7585396             -3.7902863
Ar              0.0962974             -1.1773352              3.0162306
Ar              3.0149105              2.6404006             -0.6805356
Ar              0.6973673             -3.2808827             -2.6492294
Ar             -2.5878084              1.2715887              1.2555570
Ar              2.7518053             -2.6077563              0.5649237
Ar             -5.3930121             -4.0378737             -2.3150177
Ar             -5.6032371             -0.0804094             -0.6315854
Ar             -2.1353277              5.2693189             -3.4984382
Ar             -0.5770865              3.7519348             -0.5396496
Ar              2.0589681              1.0475283              5.5620291
Ar             -2.7582646              1.6420569             -2.4356898
Ar              4.4018689             -3.7336030             -2.5748466
Ar              1.2816587              6.0023230              1.7301617
Ar              3.2625909             -2.4216410              4.5727811
Ar              2.8353763             -0.2877628             -3.3458498
Ar             -2.1353553              4.7045187              2.7392662
Ar              5.5448623             -0.4819139             -0.8770267
Ar              1.9325224             -6.1814246             -0.7235089
Ar              4.6525211              5.9139763              0.1500048
Ar              1.8666789             -5.4356850              2.9742883
Ar             -0.7450025             -0.5471819             -4.5871140
Ar              1.6121585              6.1335944             -2.1502203
Ar              3.9573054              3.9635100              3.4128277
Ar              6.4907273              2.7118211              0.8835029
Ar             -2.4789280             -3.8174412             -4.8335543
Ar              0.6652964              4.5970828              5.2844808
Ar             -2.5278803              2.4071415             -6.0308132
Ar             -4.0641515             -5.4589214              0.9729042
Ar             -1.7372849              7.2149725             -0.2235358
Ar             -0.6474485             -3.8747914              0.7363980
Ar             -4.2904244              4.2898917             -0.3579598
Ar             -1.7399396              1.5257255              4.9230277
Ar             -4.6661763             -0.7813274             -4.4311817
Ar             -1.8291298             -6.0431723             -1.9634171
Ar             -0.9342398             -7.4918082              1.5086629
Ar             -1.6472534             -4.5980317              4.1677496
