42
Energy:            -187.3549
Ar              0.2010928             -0.5722638              1.3383945
Ar             -3.4313420             -0.7960866              1.9005000
Ar              3.1400560             -2.4061427              0.0733102
Ar             -3.2267285              2.0277708             -0.4808534
Ar              1.2702663             -0.1613767             -2.0409148
Ar             -1.4423437              5.5733943              1.8728789
Ar              0.4190038             -3.9680405             -1.8834952
Ar              0.2259320              2.8891615             -0.1280229
Ar              1.9028053              4.0473294              2.9211016
Ar              5.1728638             -1.1845764              2.9599054
Ar             -5.9528950              1.9031792              2.1185438
Ar             -1.3136492             -3.8385763              1.4512484
Ar              2.9676587              3.1922294             -2.5419105
Ar             -2.2188126             -1.4484613             -1.4424822
Ar             -4.8269432             -3.8495128              0.2620804
Ar             -2.0602713              5.3288225             -1.8616807
Ar              4.9782559              0.0124896             -2.3645167
Ar              1.9644155              0.6134829              4.3430995
Ar              2.0111475             -3.0886398              3.5071503
Ar             -4.0812948             -3.7623531              4.0683854
Ar             -0.7407028              2.3300914             -3.7266025
Ar              6.7914287             -2.5934572             -0.3450992
Ar             -0.6612541             -1.4640673             -4.8538087
Ar             -4.9371583              5.1783176              0.6573294
Ar             -0.9355727              1.4796809              6.7716731
Ar              4.3078815             -5.4045666             -1.6399294
Ar              1.6954183             -5.9296045              1.0907091
Ar             -1.4734632              2.0783166              3.1276824
Ar             -0.6485842             -5.4160034              4.7208008
Ar             -5.9685164             -0.4700941             -0.8571531
Ar             -6.9181225             -1.6727744              2.7260916
Ar              5.2592638              2.4956347              3.7639335
Ar              5.1172487             -4.8763009              2.1413763
Ar             -0.6229787              4.9700055              5.5092953
Ar             -4.3034911              0.4619449              5.2198294
Ar             -4.1497276              4.2849002              4.3490209
Ar              3.3613316              1.2621048              0.7876419
Ar             -4.0116434              0.5794897             -3.9603165
Ar              7.0668699              1.0960551              0.6202397
Ar              2.4456131              0.7742224             -5.3987283
Ar              3.1166669             -2.7192655             -4.0506531
Ar             -1.1337669             -1.5746664              4.6778021
