42
Energy:            -188.2938
Ar             -0.2014846              2.7521647              0.0840417
Ar              0.1633268             -3.2467278              1.5058020
Ar             -2.5210671              1.6915941             -3.0508402
Ar             -1.8095893             -0.9703901             -0.6361543
Ar             -0.1102094              6.4705116             -0.3054870
Ar              0.8702437              0.5254194             -2.7386298
Ar              1.0627929             -3.0959031             -1.9975081
Ar             -3.6685263              2.1041422              0.7121624
Ar             -4.5660141             -0.4533336              3.3544694
Ar              1.8577177             -0.2746972              0.5373511
Ar              4.2161072             -1.0248226             -2.2187199
Ar              3.9036554             -3.2381982              1.1017044
Ar             -5.5850975             -0.8461906             -0.3185247
Ar              3.6178997              1.9057085             -4.7019835
Ar             -2.9538304              2.9490101              4.3097649
Ar              3.3258521              2.7408898             -1.0344135
Ar             -6.0635105              2.5343473             -2.1021834
Ar             -3.2011237              5.6873908              1.7751970
Ar             -1.3288986             -3.0636227              4.7710465
Ar             -4.0497166             -3.5827385             -2.2767849
Ar             -1.5532573             -1.7295294             -4.3850892
Ar              4.3161600             -4.8159278             -2.3148174
Ar              6.6993235              1.7730868             -2.2029858
Ar             -1.4171614             -5.6684380             -0.8770070
Ar             -0.1087371              1.4591357             -6.1009540
Ar              2.9457650              2.3768524              2.7422826
Ar              0.6085931              1.9241682              5.6265681
Ar              2.2043252             -1.2325567              4.0681849
Ar              0.4838412              4.1430425             -3.3119945
Ar             -1.2103326             -6.4016158              2.8264656
Ar             -3.4976962             -3.5265751              1.5366575
Ar              0.1256890              4.7613093              3.1734516
Ar             -2.4735241             -0.0165368              6.4911018
Ar              3.1718322              5.7715949              1.1787350
Ar              1.9852443             -6.3233743              0.4130820
Ar             -3.1301805              5.0285489             -1.8595445
Ar              5.4894829              0.1357344              1.1068371
Ar             -0.9977184              0.1964942              2.7707584
Ar              2.1892322             -1.6845829             -5.3618314
Ar             -5.2201528             -0.5780316             -4.1244230
Ar              2.1190497             -5.0117117              4.0661492
Ar              6.2931890              3.7449789              1.0951366
