42
Energy:            -185.2547
Ar             -0.0557361             -1.4368553              0.9404298
Ar              2.1874256             -0.1535539             -1.6734724
Ar              2.9362899              0.3203726              1.9058208
Ar             -2.2845813              0.6106392             -1.3096808
Ar             -2.2274985              1.0510683              2.3513608
Ar              0.6647232             -0.7106222              4.5969488
Ar             -0.5672284             -2.2284294             -2.6915215
Ar             -5.4788127             -0.5477393              1.8261211
Ar             -4.8897940              2.7657775              0.1745822
Ar              3.8092635              1.5575526              5.2504528
Ar             -3.2636071             -2.8669839             -0.1102468
Ar             -2.2896886             -0.1020202             -5.1158314
Ar              1.4621687             -0.7923829             -5.4156941
Ar              3.8558855              1.9118371             -4.3650787
Ar              4.7725756             -1.7141537             -3.7244076
Ar              0.1466195              2.2562526             -3.5824006
Ar              5.2202043              1.7284492             -0.8405886
Ar              0.5615953              2.9439589              3.9907677
Ar             -2.2696808              1.0736520              6.0175849
Ar             -4.4449875              2.5667599             -3.6522353
Ar             -4.0003518             -3.2308088             -3.7352944
Ar              5.1333520             -1.9703519              0.0465554
Ar              6.4938133              0.8623512              2.5826050
Ar              0.4511788              2.4620737              0.3150401
Ar             -1.2509291             -5.6979418             -2.0860666
Ar              2.7108434              4.4043009             -1.7822053
Ar              2.7231629             -3.2872223              2.8015176
Ar              3.6776669              3.8812863              1.9407463
Ar             -5.5480505             -4.2178598              2.6247827
Ar             -5.1249251              2.6113880              3.9870715
Ar              0.1200848             -4.3826442              5.3032438
Ar              2.0308881             -3.9371212             -0.7498566
Ar             -2.2632473              4.7014244              2.1944452
Ar             -1.1272652             -3.5863745             -6.1189680
Ar             -5.4236229             -0.9667944              5.5002179
Ar              5.2395376             -5.1095822             -2.2001298
Ar             -2.5225431             -2.3476749              3.6194650
Ar              2.0936139             -4.3760809             -4.3734980
Ar             -0.6792518             -5.0110106              1.6453775
Ar             -5.9614273             -0.4655423             -5.5794106
Ar             -1.9984594              4.5048111             -1.5487875
Ar             -5.7537608             -0.4900466             -1.8477002
