42
Energy:            -181.2892
Ar             -0.3594845              0.3827913              0.0546873
Ar             -3.0796779             -2.0807795              1.4069429
Ar             -3.2432734              1.6225434              1.9426826
Ar              1.5935229             -2.7538509             -0.3971983
Ar              2.9374220              3.1544863              1.2554791
Ar             -0.5987977              4.2909456              1.5053719
Ar             -1.0933123             -5.0728667              0.5169102
Ar              3.4039518             -0.4307502              2.0771362
Ar             -4.2307884              0.1269744             -1.3120766
Ar              4.2563314             -4.0444005              1.8159885
Ar             -5.1181498             -3.5471353             -1.5262820
Ar              0.8764920              3.3548474             -1.7718783
Ar              3.1040471              0.4233892             -1.4927196
Ar              1.3043780              4.9142691              4.5723701
Ar              0.5699387             -5.2647258             -3.0651879
Ar             -4.1687379              5.2536278              1.6947749
Ar              2.1024809              1.9696226             -4.9361891
Ar              0.4731532              1.3897108              3.5290963
Ar             -2.2649661              3.3765596              5.0119994
Ar              4.2612923             -4.1335809             -2.4132526
Ar              0.2987011             -2.2332338              2.9177585
Ar             -1.2973793              4.3513005             -4.6667272
Ar             -4.5375448              2.3324390             -4.4337338
Ar             -2.2882635             -4.4695623              4.2599690
Ar             -1.6487811             -2.4749222             -2.0694467
Ar              0.8192027              7.7341086              1.9268701
Ar              4.6206789              3.6084874             -2.4863119
Ar              1.5902124             -1.7383994             -4.0110556
Ar             -1.2017933              0.7800655             -3.5991425
Ar             -2.4641593             -0.5937475              4.8519257
Ar              2.8979648              6.3590118             -0.7346048
Ar              1.2392514             -5.7722022              3.4205045
Ar             -2.7792324              3.4602566             -1.3296401
Ar             -4.6492777             -5.5957849              1.5847941
Ar             -1.9543003              6.9589566              4.1991448
Ar             -1.2660345             -3.3145521             -5.7557131
Ar             -4.2530597             -1.4300260             -4.6518910
Ar             -0.7926698              6.6515585             -1.4748709
Ar              4.2780125              6.3390667              2.7592816
Ar             -1.8178927             -7.9466514              2.7643118
Ar              2.0986885              5.8079875             -4.3307399
Ar              2.3112041             -6.5815643             -0.0874894
