42
Energy:            -189.0109
Ar             -0.5397571              0.5242095             -0.4314069
Ar             -0.8494034             -2.7910218             -2.1107337
Ar             -2.7509096             -0.6692376              2.3963180
Ar             -0.3558386              4.1716923             -0.3673114
Ar             -0.5073045              2.2888277              2.8208108
Ar             -3.9247861             -0.7847209             -1.2111968
Ar              0.2705475             -2.5862352              1.4016191
Ar             -4.3308778             -4.0341284             -2.9680373
Ar              2.4975662              0.3476244              1.8559520
Ar             -3.1156974             -3.9944730              0.6096015
Ar              0.2975418             -0.8527265              4.6823289
Ar              0.6012575              1.0128149             -3.9415979
Ar              2.7885610              2.2721016             -1.2944707
Ar              1.9270506             -5.0398662             -0.8326163
Ar              2.4416111             -1.3868210             -1.4410260
Ar              1.8218613             -4.3582815              4.2469233
Ar              4.0239102             -1.3292801              4.8513212
Ar              4.5332558             -3.7874750             -3.2983512
Ar             -3.9020737              2.4912866              4.3412959
Ar              2.5606811              2.1664914              5.1311936
Ar             -2.7218258              2.3331197             -2.9399300
Ar             -2.5074428             -0.9625621             -4.7923904
Ar              3.3753416              3.6997001             -4.6705676
Ar             -1.4460391             -6.4043940             -1.9323696
Ar              0.4259967              5.2954261              4.7871390
Ar              1.6270145             -6.1200406             -4.3270637
Ar              2.6772429              5.9771712             -1.5565108
Ar              2.6676661              4.1165730              1.9113481
Ar             -3.6293635              2.4577738              0.6331065
Ar              0.7450882              7.2630295              1.5657132
Ar             -1.5938804             -4.6020955             -5.3924042
Ar             -1.9451893             -3.8577218              4.2219110
Ar             -0.1171199              4.7570451             -3.9918326
Ar             -0.3869799             -6.2946946              1.7824168
Ar             -0.6406149              7.7764577             -1.8406738
Ar              1.4400937             -2.4139369             -4.9966513
Ar             -0.9029127              2.2057728              6.5740489
Ar             -3.6423381              5.6332918             -1.3403071
Ar             -2.4947147              5.5232191              2.3957585
Ar              4.0699257             -3.0527603              1.4767476
Ar              4.2816504              0.0513892             -4.2634510
Ar             -3.1808287             -0.7909846              6.1168513
