42
Energy:            -178.6847
Ar              0.5811897              0.2786809             -0.2221299
Ar              3.8960638             -1.1840357             -1.4312105
Ar             -2.1046660             -2.3262285             -0.5941607
Ar             -1.8787195             -3.6741767              2.8310362
Ar              3.2585450             -0.3032561              2.1430453
Ar              1.6719642              1.5327342             -3.4412547
Ar             -1.8473935              0.5923931             -2.8895891
Ar              0.6862139             -2.1363885             -2.9458645
Ar              3.3948790             -1.4706272             -5.1982397
Ar             -0.2821213             -0.3850737              3.2104915
Ar              1.9651529             -3.2665476              4.1722954
Ar              3.7436793              2.4325805             -0.4298351
Ar              2.3795199              0.0777214              5.8039378
Ar             -4.2983937              0.3730164             -5.6192117
Ar             -2.6381853             -2.7847288             -4.3664950
Ar             -2.1288439              2.8312962              3.8782171
Ar             -4.1835616              4.3835825              1.1364917
Ar             -3.8167319             -0.6082658              4.2149665
Ar              2.6740010              1.8504847             -6.9673883
Ar             -6.6408175              1.2924248              0.5735834
Ar              1.0269109              3.5294678              5.8638747
Ar             -4.6134347              2.8776761             -2.2542217
Ar             -0.3092551             -0.3275661             -6.1275582
Ar              5.3517715              1.4059485             -3.8789880
Ar             -2.9832672              0.8807039              0.8042508
Ar             -5.1541162             -0.8301928             -2.1241422
Ar              5.5143534             -1.6792482              4.7303561
Ar              1.1507436              2.9533852              2.1985411
Ar             -5.8440546              2.5201061              4.0005130
Ar              1.2396520             -3.2785645              0.5548597
Ar             -5.2826437             -2.2894757              1.2842973
Ar              5.8589812             -0.0213896             -7.5630904
Ar              4.8377578             -3.5998086              1.4842820
Ar              4.4270005              2.6777615              3.9909571
Ar             -0.8868712             -5.4153649             -2.2351655
Ar             -1.2368624              0.5349224              6.7279910
Ar             -0.9647242              3.5981351             -0.8715672
Ar             -6.3151918             -2.9226255             -4.9843843
Ar              5.9435833              3.7271798             -6.7954208
Ar              2.2505183             -1.5097881             -8.7068258
Ar              0.5786580             -3.9921100             -6.1277667
Ar             -4.7497951             -4.5986489             -1.8183736
