42
Energy:            -183.8397
Ar             -1.1018014              1.3462704              0.6292303
Ar              1.0486634              3.4179775             -1.4377651
Ar             -0.7808521             -5.2778373              2.6537331
Ar             -0.8447284             -3.8345413             -0.7155098
Ar             -2.1801608              4.6972860             -0.1500742
Ar              0.6877698             -0.5312718             -1.9028772
Ar              0.9084983              4.2332097              2.1221413
Ar             -1.8750350             -1.7433048              2.2383662
Ar              2.7383000             -5.0451216             -0.5230682
Ar              1.5962530             -2.1881874              1.4803036
Ar             -1.8673365              1.8893804             -2.9481186
Ar              2.8140598              1.1307545              0.8463132
Ar             -2.4116801              3.3131999              3.4652151
Ar             -3.2278758             -1.0706277             -1.1744692
Ar              4.1568365              1.8948934             -2.6274770
Ar             -0.7952742             -0.7892581             -5.3110011
Ar              1.1863715              2.4168855             -4.9872866
Ar              4.7320352             -4.3121740             -3.8268411
Ar              4.1024223             -1.6167877             -1.3789077
Ar              0.5263444              0.7885932              3.7900136
Ar              3.0419735             -0.8725333             -4.9141268
Ar              2.8067717             -4.9352108              3.6597606
Ar             -3.5389641             -3.7243558              4.8147894
Ar              3.6958346             -1.0573460              4.2888225
Ar              0.4898355              3.8411512              5.8722906
Ar             -4.2710627              3.5649238             -5.1428069
Ar              1.0429129             -3.7839917             -3.8179717
Ar              0.2091121             -2.6212519              5.1729970
Ar             -2.8110925             -3.5986931             -3.8748281
Ar              3.7694210              2.7867916              4.0331441
Ar             -4.2335498             -4.1876165              0.9029132
Ar             -2.8142466              0.0492754              5.3161494
Ar              4.2010160              4.5339977              0.2029613
Ar             -4.5107796             -0.1996501             -4.5649622
Ar              3.0951823              5.4724684             -3.6410784
Ar             -4.6086797              0.6623055              1.8796359
Ar             -5.7634510              2.5052949              4.9325170
Ar             -1.1157168              5.4165407             -3.7600492
Ar             -4.9362588              5.8682369             -2.2565328
Ar              5.3769135             -3.1657435              1.6650723
Ar             -5.1752859              2.1758103             -1.5188683
Ar             -5.5012884              4.3487809              1.5164029
