42
Energy:            -186.8834
Ar             -0.2123712             -0.5127679             -0.2416517
Ar             -3.3837874              0.2564247             -2.0288935
Ar              2.0432220              0.9150991              2.4457778
Ar             -3.2780768             -1.9093438              0.9767431
Ar             -2.5827504              1.6402226              1.4891635
Ar              2.9591854              0.8543514             -1.1511830
Ar              2.7867507             -2.5525885              0.1396408
Ar             -2.8023494              3.8333204             -1.5173266
Ar              4.3258170              3.4974330              0.9957457
Ar             -6.0806703              0.4301241              0.7839573
Ar              0.0361207              1.8221567             -3.2584982
Ar              6.0149681             -3.7701066              1.6722543
Ar             -1.9221539             -3.2474823             -2.1897381
Ar             -5.4783939              4.1378608              0.9972390
Ar              5.4149594             -1.5967041             -2.3377862
Ar              1.1845801             -5.3642225             -1.9085851
Ar              6.3094040              2.1231367             -1.9451487
Ar              0.5240116              3.2941802              0.0758143
Ar             -0.4210086             -4.1565991              1.1451845
Ar             -6.4755060             -3.1397507              2.2081307
Ar             -5.7450158             -2.6818308             -1.6184536
Ar              3.1428014              4.1173047             -2.7051026
Ar              5.5042163             -0.1098375              1.2919407
Ar             -1.6235628             -0.9478176             -5.1378273
Ar             -0.6270636             -1.3530186              3.5086025
Ar             -0.2023749             -4.4786604             -5.3240706
Ar             -4.2613714             -0.4473456              4.1807984
Ar              2.8389858             -5.8652905              1.7468224
Ar             -3.1646326             -4.1761980              3.8710685
Ar             -1.9070908              5.2267280              2.0904571
Ar             -4.3356111              3.3059436              4.4237187
Ar              1.6680097              4.6817875              3.3471577
Ar              3.1198020             -2.4016246              3.7581215
Ar             -0.0549310              5.9089419             -2.7169522
Ar              6.0093496              5.9773279             -1.2183754
Ar             -3.8857427             -5.4665312              0.2932032
Ar             -0.7799384              2.1963276              4.6320656
Ar              1.5395377             -1.8373755             -3.2795466
Ar              4.8568502             -5.2358686             -1.5624132
Ar              2.3579032              6.5685058              0.1141404
Ar              0.4757370             -4.8729612              4.6739238
Ar              3.6474452              0.9501512             -4.7381683
