42
Energy:            -181.6605
Ar             -0.6315172             -0.1776631              0.0851170
Ar             -3.1627094             -2.0413289              2.2074588
Ar             -0.7678820              2.7962310              2.1982993
Ar              0.4070145             -3.3767250              1.2433126
Ar             -2.5035130             -2.9029215             -1.2885779
Ar              2.4877918             -1.5422071             -1.3708487
Ar              3.2643333             -0.8861255              2.1185746
Ar             -1.4264234              2.9064170             -1.5322464
Ar              2.1767205              2.0999575             -0.0320185
Ar              0.3649991             -3.8573248             -3.4154419
Ar             -0.1686433             -0.2440659             -3.6383819
Ar              2.6882075              2.3661618              3.6259119
Ar             -0.0485310             -0.5882038              3.7274290
Ar              1.0166104             -6.3784618             -0.7819789
Ar             -3.7255857              0.2891113             -2.9321482
Ar             -2.0931038              6.1884992             -3.2754301
Ar             -1.5081177              6.0612597              0.4300554
Ar              2.4186010             -3.6488787              4.4215023
Ar             -1.0043770              5.9132888              4.1880850
Ar              2.8755508              1.8320316             -3.6192413
Ar             -1.2651848             -4.1758410              4.5455995
Ar             -2.3886505             -5.7573241              1.1674888
Ar             -2.3460488             -6.3418716             -2.6263528
Ar             -3.3336292              1.0725842              4.3473395
Ar              1.4314218              5.1689044             -2.0570058
Ar              2.4996646             -5.2590000             -6.2150668
Ar             -0.3338347              3.3527371             -4.9888528
Ar              2.6617703             -0.2930313              6.2102520
Ar             -2.3377813              0.5081276             -6.5285707
Ar             -1.2033398             -5.9575467             -6.1781290
Ar              1.5016353              0.9216806             -7.0475871
Ar              2.3593687              5.4204768              5.6795045
Ar              3.9202121             -4.7604999             -2.7663686
Ar             -0.1938661              2.5184707              5.9258100
Ar             -3.9907321              1.2720277              0.6591409
Ar              3.9241112             -4.4033826              0.9423737
Ar              1.9140459              5.4646374              1.7570768
Ar             -3.5373564              4.2253407              6.3959152
Ar              0.0325009             -2.4626103             -6.9153073
Ar              3.1555338             -1.7344485             -4.9818646
Ar             -3.0227237             -2.8881249             -4.8962227
Ar             -4.1152863              4.4294481              2.6432726
