42
Energy:            -175.9190
Ar              0.8739015             -0.0724961             -0.0715977
Ar              1.1605655             -3.2672716              1.9705357
Ar             -1.4645033              2.7728447             -0.8031275
Ar              3.0981962             -3.0403246             -1.1430204
Ar              0.7752518              2.9059900              2.0415660
Ar             -1.7993343             -2.6500314             -0.2050660
Ar             -2.0443326              0.4709319              2.2043347
Ar              2.2344564              3.3727390             -1.3196196
Ar             -2.6049724              4.3518464              2.4298659
Ar             -2.3603958             -3.1201929              3.3636543
Ar             -2.9788201             -0.0467645             -2.5326974
Ar             -2.9901259             -3.6579212             -3.6459584
Ar              3.4809416              0.2574456             -2.7839503
Ar             -3.3075554              3.4110823             -4.0179845
Ar              2.5808664             -6.4584438              0.3679908
Ar              1.2960980             -0.1486930              3.9171814
Ar              3.1440266              3.1363023              4.7939668
Ar             -0.2138614              5.4048677             -3.3181063
Ar              0.1467991              1.7474366             -3.9996954
Ar             -0.0343803             -4.3093609             -5.8656842
Ar              0.5542747             -3.3641637              5.7328155
Ar              0.1173914              5.9933032              0.3147155
Ar             -3.3845012              5.9163164             -1.0134452
Ar              3.0896216             -6.0665440             -7.0028426
Ar             -1.1316890             -6.1214795              1.3787350
Ar              0.5784997              6.1089911              3.9696691
Ar              1.7178864             -6.4549664              3.9726048
Ar              0.5378976             -7.8715864             -4.7573394
Ar             -0.6861706              2.8592431              5.3823348
Ar              4.0147987              1.2737348              1.3579058
Ar              3.3425304             -2.8130573             -4.9980623
Ar              3.5993270              5.2712637              1.6163144
Ar             -1.8499054             -0.8256328             -6.0534243
Ar             -1.8317304             -6.3336440              5.1637918
Ar              0.2808612             -1.7939169             -3.1964483
Ar              2.8584225              7.1085567             -1.8454459
Ar             -0.9857305              8.7936728             -1.7929464
Ar              0.0807335             -5.2642271             -2.0954570
Ar             -1.9487035             -0.5451834              5.9589272
Ar             -2.3395025              8.1388431              1.9616668
Ar              3.5429070             -6.1277307             -3.2643823
Ar             -3.2436929              7.2422149             -4.5269528
