42
Energy:            -184.9977
Ar             -0.1668585              0.8839136             -0.5520738
Ar             -3.5550412              0.7633414              0.4334159
Ar              2.3533849              1.0564627              2.2184188
Ar             -2.6596962              0.4990582             -3.1191899
Ar              3.2099866              0.5773285             -1.4037739
Ar             -0.9609998             -0.5818281              2.5652514
Ar             -2.2232136             -1.9960779              5.6498085
Ar             -2.7902367             -3.0542930             -4.1171530
Ar             -5.8524669              2.2374641             -1.9526750
Ar             -4.9600139              3.9450708              1.4408148
Ar              3.5904685              0.6629512             -5.0380226
Ar              0.6505622              2.6505729             -3.6415144
Ar              0.5689460             -1.1840971             -3.4894248
Ar              5.3869197             -1.9768018              0.3329908
Ar              1.5705540             -1.5908450              4.9411413
Ar              1.6776772             -2.2204600              0.3411610
Ar             -1.2481173              3.1540551              2.1904761
Ar              4.6445020              3.6845789             -2.5336493
Ar              3.5593940             -3.9952350              3.0301628
Ar             -4.2725580             -2.3377423              2.3383640
Ar              3.1001494              1.5878622              6.0996956
Ar             -1.8932971             -2.4137186             -0.5724600
Ar              5.9065949              1.7164039              0.7209484
Ar             -0.5159938              1.6039599              5.4771501
Ar              3.8955924             -2.6886864             -3.0369591
Ar             -5.7068035             -0.1072117             -5.0310633
Ar             -3.9965548              1.0974795              4.0482848
Ar             -2.2770968              3.8365031             -1.3690027
Ar              1.6076744              3.9863546             -0.1889874
Ar              0.4966739             -4.6816593             -2.3061819
Ar              3.6834055             -5.3568457             -0.4218060
Ar             -6.9997178              0.4153014              1.4093157
Ar             -7.2918386              2.9155789              4.2383314
Ar             -7.4743571              3.2547578             -5.2006966
Ar              5.6360476              3.2352713              4.0534582
Ar             -5.4517605             -1.6504884             -1.5557397
Ar              5.1957860             -0.6133866              3.8192305
Ar              6.5974533              0.1321683             -2.6987803
Ar             -0.4551075             -4.1819217              2.6946008
Ar              2.0035933              4.3930071              3.6657820
Ar             -3.6977602              3.5252346             -4.8844700
Ar              4.8102723              5.2888525              1.0341700
