42
Energy:            -179.5872
Ar              0.2153495             -0.4714997              0.1843984
Ar             -1.6509891              0.9488570             -2.7653791
Ar              1.5523013              0.5240607              3.4192048
Ar              1.9684050              1.9179058             -1.8510785
Ar             -2.0857018              0.5157456              2.9029960
Ar              3.8524621              0.1471282              0.7130871
Ar             -4.4314728              2.5939297             -0.7864257
Ar              4.9955278              2.0420556              3.7933128
Ar              2.8177125             -2.0757019             -1.9803817
Ar             -4.2212613             -1.8306244             -3.5912987
Ar             -2.9770726             -2.0465211              5.4068592
Ar              1.1403255             -0.3542351             -4.7797109
Ar             -4.1443739              1.7149557              5.6940078
Ar             -5.7629572              0.7828979              2.2488042
Ar              0.8621020             -2.6247391              5.1052218
Ar              5.4473618              3.1117405             -0.8354053
Ar              4.2369487              1.9276515             -4.7012783
Ar              2.2194821             -3.2020597              1.5810926
Ar              4.7399599             -1.6962899              3.8279860
Ar             -1.9737209              1.0969666             -6.4775100
Ar             -5.0632438              1.6732385             -4.3596471
Ar             -0.5989619              0.6644163              6.4459377
Ar             -6.8383569             -0.2240591             -1.3643813
Ar              7.4216644              0.3196810              1.3730230
Ar              1.6301106             -4.1586747             -4.8743734
Ar             -4.6670859             -4.7125139             -5.9492125
Ar              6.1062734             -0.2726916             -2.2398062
Ar              0.5161641              3.3933142             -4.8773440
Ar             -4.9748635             -1.0607826             -7.1462104
Ar              5.7716467             -3.0174229              0.3371838
Ar             -0.9425881              3.0069339              0.3420507
Ar             -1.5619885             -2.5814444             -6.1060126
Ar             -3.7760398              3.9432271              2.6617020
Ar             -6.6450192             -1.0949234              5.4101358
Ar             -0.8603456             -2.8178893             -2.3724480
Ar             -0.3324875              3.6349774              4.0963198
Ar              2.5029050              3.5992472              1.4947203
Ar              3.1649612              0.1507526              6.7138837
Ar             -5.1916927             -2.9144109              2.4320988
Ar             -3.4093904             -0.9595680             -0.1522893
Ar             -1.4477965             -3.1602929              2.1241951
Ar              4.5732740             -1.8098256             -5.3204307
