42
Energy:            -181.3215
Ar              0.1416054              0.0971127              0.4549170
Ar              1.1649798              2.9844886              2.3834969
Ar             -2.1750955             -1.3993151             -2.0752388
Ar             -0.0965366             -2.8674039              2.6490140
Ar              1.2437866             -0.2733587             -2.9690569
Ar              2.6458313             -0.3016961              3.2412583
Ar             -1.2562019              2.2465349             -2.2952002
Ar              0.9691812             -3.2312591             -0.8821278
Ar             -0.9746961              0.4449944              3.9865633
Ar              0.0682606             -3.3646533             -4.4844114
Ar             -1.4247260              0.0264158             -5.4940052
Ar             -2.4036886              2.7231243              1.1818800
Ar             -1.2248097             -2.4622289              6.2728588
Ar              2.2488818              2.8784606             -1.2764914
Ar              2.3701736             -3.3198515              5.4344939
Ar             -2.4119182             -4.4440604              0.0998932
Ar              0.6470902             -6.2736783              1.3053615
Ar              0.0062067              5.6282565              0.2064746
Ar              1.3881555              2.5567479             -5.2485886
Ar             -0.1039966              3.4920660              5.9209923
Ar              0.2765898              5.5659589             -3.4386610
Ar             -3.3213575             -4.6269747             -3.5904818
Ar             -1.8336436              5.6518848              3.4185067
Ar              2.5839581             -6.0564028             -4.9138156
Ar              1.8650881              6.2181146              3.9616348
Ar              1.4869508              0.1364088              6.7877518
Ar              3.2279762             -6.7148089              3.9813275
Ar              3.4802882             -3.6745676              1.7959200
Ar              3.8148640             -2.8651769             -3.3384996
Ar             -3.2035758              5.3033155             -1.7369298
Ar              3.4449377             -5.9927099             -1.2066229
Ar             -2.3271109              3.7578191             -5.4809946
Ar             -0.3859645             -5.8817659              4.8839217
Ar             -3.4918004             -4.0324189              3.6942550
Ar              2.3607922             -0.9897571             -6.3800589
Ar             -3.7736828              2.6996485              4.7306928
Ar              4.5819083              0.9469384             -3.7695996
Ar             -0.6250308             -2.6402003             -8.0721654
Ar             -0.2155782             -6.4461775             -2.3502573
Ar              3.5723415              2.8779929              5.1869392
Ar              3.7653286             -0.5539513             -0.3087356
Ar             -3.2866678             -0.9852566              1.4765615
