42
Energy:            -186.8432
Ar             -0.7103729             -0.4342147             -1.3492685
Ar             -3.3998797             -2.8565420             -0.6376447
Ar             -1.8641347              2.9213650             -0.6835184
Ar              1.4616658              2.3130937             -1.8330795
Ar              0.6248471              1.6084578              1.7839264
Ar              1.0376302             -3.4831417             -2.0432929
Ar             -2.0228945             -2.0731327             -4.2793386
Ar              3.3266208              1.2561049              4.2439031
Ar              0.7947220             -4.3494405             -5.5455740
Ar             -0.5061113             -0.9196580              4.4428978
Ar             -1.9211967             -5.5066110             -2.7598679
Ar             -1.8685575              4.1975594              2.7587652
Ar             -3.4638689             -3.0517065              3.1866096
Ar              0.8097668              5.2937578              0.2281137
Ar              1.0380815             -6.8689194             -0.5803349
Ar             -0.1625527             -2.7838289              1.3110812
Ar              2.1124253              4.7257387              3.5717476
Ar             -0.0646767              2.5286192              5.5838584
Ar             -0.4250666              5.2342711             -3.2856904
Ar             -1.4269567              1.7359178             -4.2684012
Ar              3.9976078              2.8508307              0.7583287
Ar             -2.8515458              6.3900443             -0.2864787
Ar              4.2483761              6.6006543              1.0308220
Ar              3.5874667              5.1791217             -2.4399741
Ar             -6.1443322             -0.8661334              1.1466558
Ar              4.5780453             -2.4237122             -2.8814449
Ar             -3.6541203              1.4899237              4.7811922
Ar              3.6706866             -4.3667146              0.3541404
Ar              4.7865880              1.3641818             -2.8310128
Ar              2.8024357             -0.7068656             -0.1005513
Ar             -2.6778436              0.1477325              1.5741083
Ar             -4.2324747              4.1620794             -3.1443491
Ar              3.5329980             -5.9761642             -3.2495878
Ar              1.1946406             -5.7349881              3.0162307
Ar              2.8600915             -2.2939501              3.3606912
Ar             -4.3002404              0.4870254             -1.9894208
Ar              2.0935671              3.0656688             -5.3380937
Ar             -2.1555206             -5.9470330              1.0654248
Ar             -1.9732439             -8.9717573             -1.3224696
Ar             -5.1000716              2.9335195              1.0142189
Ar              1.6199190             -0.5689855             -4.2576146
Ar              0.4775006             -7.9533060             -4.1739378
