42
Energy:            -185.8448
Ar             -0.0203098              0.4592987              0.1031107
Ar             -3.2824952             -0.4999673             -1.6270515
Ar              2.6820425              1.4152923              2.1586963
Ar              0.0600079             -1.5524593             -2.8529381
Ar             -2.8456888             -0.1862078              2.0834208
Ar              2.8294084             -1.7397371             -0.0983539
Ar             -2.7559042              2.9285443             -0.0852082
Ar             -0.5277262             -5.0957871             -3.6010005
Ar              0.6514808             -1.5354351              3.1931883
Ar             -0.6707061              2.5309905              3.0759720
Ar              4.3356084             -1.0542311              4.2765320
Ar             -5.2262548             -2.7145068              1.0405695
Ar              2.2261136              4.7100998              3.8281222
Ar              0.9214769              4.1384665              0.1696183
Ar             -0.0879170              2.1712275             -2.9622009
Ar             -2.9160987             -2.3349532             -4.9598836
Ar              3.0756771             -3.5221834             -3.5374089
Ar              2.3386711              4.9257968             -3.2457521
Ar             -4.2868533              2.8729264              3.5970817
Ar             -3.5843079              2.5455957             -3.8713343
Ar             -1.2580101             -3.0423235              0.3297899
Ar              5.9359707              0.3574497              0.9851541
Ar              3.2467828              1.6889545             -1.4790639
Ar             -5.6317011             -0.6491951              4.3625294
Ar             -3.8309710             -4.3454573             -1.9877021
Ar             -5.9932326              1.0277050              0.6620248
Ar             -1.4542154              5.5777473             -2.4186344
Ar              4.6966892              4.2189218              0.8595391
Ar              1.6068200             -5.2364444             -0.5349929
Ar              3.6217481             -4.2177625              2.5093026
Ar              5.5983796             -0.9424906             -2.5917186
Ar              0.1115143             -5.3523496              2.9427238
Ar             -1.8715957             -0.0251180              5.6040026
Ar             -2.8172780             -3.3109967              3.9508819
Ar              2.6237508              0.1994721             -4.8299538
Ar              0.6643044             -2.7564661             -6.3523331
Ar             -1.4118144              3.6240236              6.4809686
Ar             -0.9984084              0.6039222             -6.1116905
Ar              5.3862418              2.5927003              4.3129790
Ar              1.7032901              1.3390989              5.7126294
Ar             -4.7356351              1.8053791              7.1727512
Ar             -0.5512424              4.3630047             -5.8809427
