42
Energy:            -184.1268
Ar              0.2114154              0.1856844             -1.0986176
Ar             -0.2270402             -0.8144527             -4.9327356
Ar             -1.2489898              1.4904427              2.2052264
Ar             -0.8710404             -2.1460488              1.6956148
Ar             -0.1886309              2.7885149             -3.7484115
Ar              2.9802598              4.4784759             -2.8117674
Ar              2.2433701             -2.5085011             -2.7134868
Ar              2.0329639              0.1514644              2.4085509
Ar              2.6321827             -3.0755185              0.8572474
Ar              1.2152822              3.3608832              4.1694559
Ar             -2.3081731              3.0337943             -0.8252432
Ar             -1.5671461             -2.7596613             -1.9153858
Ar             -2.4023925              3.2659154              5.2629589
Ar             -3.2418937              0.4593452             -3.2934148
Ar             -1.9058279             -3.3819248              4.9519937
Ar             -3.8172663             -0.1078559              4.2082735
Ar             -0.0277835             -4.5801976             -4.8565703
Ar              2.2082622              3.5246812             -6.5732845
Ar             -3.7482759             -0.2952699              0.2628570
Ar             -0.2371836              0.0759583              5.4507460
Ar              3.9769566              0.3828736             -0.6232573
Ar             -3.4988073             -2.8896355             -5.0536471
Ar              1.9405332             -2.7988478              4.6023516
Ar             -3.0976679              5.1359407             -3.7774382
Ar              4.5331457              2.8892674              2.2585085
Ar              2.9783389              0.8851908             -4.0828334
Ar             -5.1633383             -3.2953675             -1.5119959
Ar              1.4032352              3.2319071              0.2989250
Ar              2.4577354              6.2406610              2.1033693
Ar              3.5740089             -6.7023631              0.9471571
Ar             -1.3011361              5.2112390              2.1584225
Ar             -0.2366443              6.0956087             -1.3294541
Ar              0.3924935             -5.5694273              2.6722020
Ar             -4.5868011              3.0911420              2.1109932
Ar             -2.6363717             -5.3466027              0.5845556
Ar             -3.9992389              6.2620417             -0.2203023
Ar              4.3440219              4.8909530              5.4092675
Ar             -2.9253979             -6.0828366             -3.0355374
Ar             -4.8531213             -3.1303273              2.4056376
Ar              3.6153438              0.9162109              5.6352324
Ar              0.3293304              6.3430629             -4.9869529
Ar              0.6406302             -5.6052879             -1.1914139
