42
Energy:            -185.2731
Ar              0.2742835              0.0717676              0.9453361
Ar              0.3695956              0.7321473             -2.8140333
Ar             -3.2066540              0.8174002             -4.1159906
Ar              3.7137298             -1.2811510              0.9753741
Ar             -2.2777192             -2.1397243              4.9920831
Ar             -0.7528913              1.2832274              4.3378866
Ar              3.8143603             -0.5899733             -2.7615313
Ar              1.3541238             -1.8709545              3.9284444
Ar             -2.2930551              2.2406337             -0.6527570
Ar             -3.2762681             -0.1895910              1.9790581
Ar             -2.2302359             -1.3263930             -1.3118355
Ar              2.8470609              1.5201531              3.2818743
Ar             -4.3849584              0.9982460              5.3823148
Ar              2.9255893              2.1770569             -0.4467242
Ar              3.1303745              2.8254982             -4.2002248
Ar             -1.2126114             -3.2977711              1.5751544
Ar              0.3793295              4.3999388             -2.1303210
Ar              1.1142175             -2.7417721             -1.3579308
Ar              2.9324542              5.8874036              0.1815791
Ar              0.2249138              3.7172881              1.6333959
Ar             -4.7164644             -2.7448384             -3.5399679
Ar             -3.3844974              3.4882162              2.7036662
Ar              2.2483148             -4.7265558              1.5922607
Ar              2.6302504             -3.6249186             -4.6464372
Ar             -0.1611846             -5.2951080              4.5427439
Ar             -4.8549522             -3.2714567              0.3158457
Ar             -0.9380826             -2.3351873             -4.5740432
Ar              4.6159066             -4.0596844             -1.3722659
Ar             -3.2154191              4.5329041             -3.4058942
Ar              5.6907034              4.2731779             -1.8908258
Ar             -3.8236699             -5.2173123              3.3923104
Ar             -5.5574138              3.9588294             -0.3961676
Ar             -1.9662300             -4.9500197             -1.7316623
Ar             -2.3122068              5.9628826              0.0199646
Ar             -6.5860946              1.4492477              2.3002107
Ar             -5.9273249             -2.0677679              3.7427157
Ar              5.5416553              3.6473438              1.8308781
Ar             -2.8059291             -5.4958022             -5.3667216
Ar              6.4546201              0.7957461             -0.5313166
Ar              2.7563660              5.2189942              3.9236982
Ar             -5.5302413              0.2374647             -1.1092952
Ar              6.3863936             -2.6938496             -4.4312967
