42
Energy:            -184.3712
Ar              0.4532749              0.1640107              2.6180613
Ar              0.9146648             -1.8132067             -0.7901136
Ar             -2.8288975              1.8721889              1.8612593
Ar             -1.9546989             -1.4260651             -2.9984561
Ar              2.9038058              1.2761402              0.2155542
Ar              2.4127583              3.4058061              3.3428201
Ar              3.3184896             -2.1289369              1.7646797
Ar             -2.3090318             -1.4771843              0.7116451
Ar             -0.6728499              1.3810734             -0.9289287
Ar             -1.5578803             -4.6841929             -0.9126395
Ar              5.8271461             -4.1274317             -0.0353819
Ar              0.6871651              4.1086390             -2.8455593
Ar             -3.1790719              4.2379884             -1.1299699
Ar             -4.9850871             -2.9788005             -1.3136101
Ar              3.1945737              5.0045161             -0.1924963
Ar             -0.2251525              4.3799379              1.0521787
Ar             -3.8649302             -4.2661307              2.3502204
Ar              6.3910117             -0.3572120              0.6529116
Ar             -5.6533678             -0.6090110              2.0442048
Ar             -3.4366516              5.3069186              2.8654790
Ar              4.2247359             -1.3674853             -2.1858188
Ar             -4.4474428              0.7320636             -1.2497090
Ar              4.5556382              0.4760443              3.9435596
Ar             -5.2120214             -0.7076685             -4.5714526
Ar              4.3803047             -4.8818107             -3.4747515
Ar             -5.9400640              3.1438947             -3.5653139
Ar              0.0330600             -3.7118017              2.4664943
Ar              0.0487175              6.3076103              4.2192804
Ar             -3.2250241             -4.5788705             -4.3334456
Ar             -5.0030686              2.1749367              4.7336382
Ar              6.4767357             -2.8758806              3.5358546
Ar              3.6902019             -5.5579120              2.9993610
Ar             -1.0723863              2.7720513              4.8901096
Ar              0.7840649             -3.7889362             -3.8645734
Ar             -2.6563014             -0.9662596              4.3651793
Ar             -7.4990048             -3.8190817              1.3609778
Ar              4.2421446              2.4885614             -2.9422972
Ar              5.8482972              3.1916636              1.6562614
Ar              2.1900609             -5.1856267             -0.4278780
Ar             -6.1701825              3.1596449              1.0500175
Ar              1.2660517              0.3188790             -3.8684364
Ar             -2.3304167              2.0689394             -4.1787895
