42
Energy:            -179.9186
Ar              0.0912582              0.1207182              0.9117975
Ar              1.5830077              2.9716051             -0.6385664
Ar              1.2048845             -3.4405993              0.4645618
Ar             -1.9011705              3.1817454              0.1392388
Ar              2.1815434             -0.8411981             -2.0247420
Ar             -2.0707411             -2.5144773              2.1374948
Ar              0.4346566              3.5476118              2.9698270
Ar              3.2945150              1.3764397              2.4919505
Ar             -1.3441454             -2.2610918             -1.7043842
Ar              3.8039735              5.0539817              1.2797376
Ar              1.5260533             -1.8618407              3.7377690
Ar             -3.5813669              0.0477208             -0.1082646
Ar              4.8975710              1.5321737             -0.8508678
Ar             -4.7730953             -3.3881501             -0.4155339
Ar             -5.5184754              3.0280299              0.8590706
Ar              2.6145443              6.0477039             -2.3611728
Ar              4.4274351             -1.7309332              0.9327065
Ar              0.8274933             -4.9437073             -2.9647716
Ar             -0.8754068              4.8500788             -3.0062945
Ar             -4.0067406             -0.8256721             -3.7663457
Ar             -2.6587275              1.3273025              3.2616566
Ar             -4.2716251              2.8235579             -2.6946468
Ar             -0.8896900              1.1580105             -2.7986356
Ar             -0.1112598             -5.5100720              3.2344207
Ar              4.2102743             -4.7240162             -1.2790891
Ar             -2.8364086              5.3569035              2.9037120
Ar              4.6980947              5.1798044             -5.3930382
Ar             -1.7559400             -5.6433504             -0.2446611
Ar             -3.7840498              6.1689536             -0.7374151
Ar              6.0940893              4.8553522             -1.8697628
Ar              5.7736760             -1.5962712             -2.7088914
Ar              1.6660305             -7.1228326              0.1901163
Ar              2.5049647              2.4156421             -4.0700591
Ar              3.6780340             -5.0039095              2.6822381
Ar             -3.2684455             -4.6917954             -3.6596971
Ar             -6.8692972             -3.2128076             -3.5047765
Ar             -6.9274648              0.1530777             -1.5625743
Ar             -6.3443967              6.4339299              2.1573701
Ar             -5.5858397              3.4281401              4.5725487
Ar              0.0507704              6.3071226              0.4258480
Ar             -4.0260026             -5.6244370              2.7133220
Ar              6.2218208              1.8576778             -4.3181545
