42
Energy:            -187.4716
Ar              0.3773190             -0.8743133             -4.8197026
Ar              0.5195368              2.7129387              0.8268614
Ar             -2.0232258             -3.2232243             -2.6773131
Ar              3.0771280              0.3013140              0.4663130
Ar             -1.7140252              3.1897012             -1.8898633
Ar              1.9020175             -3.0621739              0.0746955
Ar             -1.7774041             -2.7384442              1.0076688
Ar             -2.7426373              0.8863092              1.0026136
Ar             -2.5763353             -5.8015361              2.9845871
Ar              4.3058622             -5.1565460              1.9931375
Ar              1.5601545              5.5833939              2.8431663
Ar             -1.2533339              3.0199566              3.9459442
Ar              5.9471111              1.2864774             -1.6344796
Ar             -5.3360378              2.1235295             -1.3547494
Ar              3.5072385             -1.3326085             -2.8024209
Ar              1.3514703             -4.3477262             -3.4219447
Ar              1.2986447              5.7435081             -1.1560579
Ar             -4.8223843             -1.5522419             -0.8955597
Ar             -3.0432910              0.2688962             -3.6761820
Ar              0.8598424             -4.2839251              3.3273948
Ar             -4.2362535             -5.2233515             -0.3280016
Ar              0.2631876             -0.4092673              2.8231761
Ar             -1.7526357              5.6139907              1.0153214
Ar              4.6279706             -4.9211820             -1.7840014
Ar             -4.7170812              3.7099965              2.2307100
Ar             -6.6053121              0.4801963              1.7281692
Ar             -5.0530993             -2.8040187              2.6652555
Ar              4.0494260              3.8061789              0.3780019
Ar              6.1306875              1.2554581              2.2928236
Ar             -0.1552029             -0.3177258             -1.2478694
Ar              5.8228519             -2.0704470              0.2938804
Ar              2.1085001              2.2690391             -2.5983125
Ar             -1.8432385              6.7620032             -2.9112075
Ar              3.7162470             -1.6993628              3.4597399
Ar              2.7606474              2.1316265              3.7573964
Ar             -4.8740458              5.7407123             -1.0165777
Ar              4.1084684              7.4940227              0.8767169
Ar             -4.0314626              0.5416187              4.4345565
Ar              5.2759693              4.9387271              3.6622542
Ar             -4.2333152              4.0255820             -4.4363924
Ar             -0.4156871             -5.9137268             -0.2772008
Ar             -2.0225025             -2.5406914              4.8634995
