42
Energy:            -182.6648
Ar              0.0426273             -0.7918270             -0.4066967
Ar             -3.3218583             -2.4242199             -0.5491325
Ar             -1.4906021             -1.7656941              2.6838264
Ar             -0.3354758              1.5984696              2.5545882
Ar             -1.4127923              0.4139403             -3.5122519
Ar              2.9066332              1.2297239              1.0032194
Ar              2.9282269             -2.9656539             -1.4005420
Ar              2.1460836             -2.1290356              2.1922202
Ar              2.4921942              0.5052049             -2.7291264
Ar             -3.0276655              1.1697163              0.2212938
Ar             -5.1513989              0.4128256             -2.6271370
Ar              5.1938888             -0.4491902              3.4404962
Ar              2.5981551              2.1429689              4.6733740
Ar             -0.5333242             -3.2617365             -3.0511720
Ar             -1.7396352              3.2257460             -6.0595594
Ar              1.2979202              0.9973844             -6.2279330
Ar             -3.4593342             -4.8123569              2.4672468
Ar             -4.2536189              2.8480407              3.2841128
Ar              1.3309836              4.0932688             -4.1725616
Ar             -2.3775179              0.6378273              5.5080155
Ar              4.6552211              2.4634416             -4.9937211
Ar              3.8766053              3.7903660             -1.4301240
Ar             -4.9763485             -0.9035269              2.8161967
Ar              2.3516312             -2.4166838             -5.1562198
Ar              0.2160701             -4.6932416              4.2029444
Ar             -3.0599696              3.6780132             -2.5501598
Ar              0.8631443             -1.1226042              5.4826715
Ar              5.6804477             -0.6016492             -0.3900572
Ar             -3.9976455             -2.7468268             -4.2360622
Ar              1.7421553              4.6698296              1.9024279
Ar             -0.8668863              4.3125196              4.8620617
Ar              3.7946149             -3.5999377              5.1399519
Ar             -2.8175024             -3.0643821              5.8431613
Ar              5.3273228             -3.8344876              1.5509932
Ar             -4.1436911              0.4266813             -6.2319279
Ar             -1.9932658              4.8128574              1.1480396
Ar             -0.1848214             -4.4786104              0.4428383
Ar              0.1862361              2.8054707             -0.9768873
Ar             -3.9794122              3.7359870              6.9548755
Ar              4.1752008             -0.3423487              7.0751101
Ar              5.6236085             -1.1053646             -4.0525773
Ar             -1.1322080             -1.8340675             -6.5237480
