42
Energy:            -184.5247
Ar              1.3003891             -0.6034367              0.6762267
Ar             -0.1755231              2.3816043             -1.1391737
Ar             -0.1433299              2.2820788              2.5022631
Ar             -0.8330710             -1.3393327              3.4348212
Ar             -0.8774050             -0.8712877             -2.3755700
Ar              2.8128052              3.5978582              0.5857456
Ar              4.3757378             -2.8823818              0.3675565
Ar             -2.7122383              0.4700000              0.6359340
Ar              4.8127459              0.6469523              1.2478364
Ar              1.3721016             -4.2277496              2.0882097
Ar             -4.4779941             -1.8771012             -1.6895513
Ar             -1.5831951             -3.0155416              0.3421001
Ar              2.6916158              0.2819168             -2.4762353
Ar             -2.3787625              5.1082354              3.3186813
Ar             -0.6921661             -6.5046488             -0.1460550
Ar             -1.5544866              4.9784761             -3.3361814
Ar              2.2255137              4.1922342             -3.1593774
Ar             -4.4618147             -2.0854858              2.5302929
Ar             -2.7963859             -1.2642921             -5.4076873
Ar             -3.4857409              1.6302294             -2.9547872
Ar             -3.2261620              1.2919923              4.3609863
Ar             -3.4054162              4.0140597             -0.0659291
Ar              1.1679854             -1.7897996             -5.2665541
Ar              1.4665139             -3.5745495             -1.7916784
Ar              0.6029166             -3.7981863              5.8003032
Ar             -1.9972602             -4.3645711             -3.1172419
Ar             -0.1597219              5.8310152              0.1479734
Ar              3.0157927             -1.4732194              3.8643681
Ar             -2.0227062             -5.0315691              3.3681838
Ar             -0.1897477              1.7557920             -4.8591988
Ar              1.4366447              5.5663071              3.5274713
Ar              5.4117034              4.8139740             -5.0780685
Ar              3.0211382              2.2144562              4.2965760
Ar              0.6614249             -0.0546567              6.4823042
Ar             -3.1017803             -2.4853210              6.0499827
Ar              3.1705971             -6.5250084             -0.2464447
Ar              3.4581635              1.6340231             -5.7907204
Ar             -5.3407429              4.9068279             -3.1908610
Ar             -4.4388662             -5.2667550              0.3764397
Ar              5.4735131              2.6446739             -1.9657733
Ar             -5.6188985             -5.1466859              4.2754121
Ar             -0.4075393              3.4371730              6.0353486
