42
Energy:            -190.3445
Ar             -1.6349257             -0.8993712             -0.1336474
Ar              1.3840819             -3.3395416             -1.3306709
Ar             -1.8768609              2.4415300             -2.0894526
Ar              0.4128390              2.2487713              0.6038984
Ar             -0.2645792             -3.4501476              2.0390802
Ar             -1.6269459              5.9561977             -3.4487916
Ar              3.9196030             -3.8905775              1.4819973
Ar             -1.5034171             -5.5352216             -1.5830251
Ar             -5.4465078             -0.8408056              0.5336362
Ar             -1.3809956             -7.0471572              1.8827413
Ar             -3.7724925             -4.1505537              0.9205196
Ar             -3.1583642              2.0374395              1.4866559
Ar              3.9936334              2.1174929             -0.3799968
Ar             -2.3695644              0.0471048             -4.8038528
Ar              2.8619354             -1.8241672              4.4197150
Ar              2.0754584             -0.7885228              1.0105067
Ar              4.6183620             -1.3332131             -1.5645376
Ar             -4.6612404              4.5807891             -1.1327988
Ar             -0.2565619              0.2723945              3.6187817
Ar              1.7155891             -5.7037104              4.0435103
Ar              2.4257231              5.2314302              1.3307130
Ar              3.0028131              2.0297562              3.3306722
Ar             -1.2144129              5.4685177              0.1882191
Ar             -0.6085216             -3.1284789             -4.3795923
Ar              1.5531726              4.1804660             -2.2782012
Ar              0.9234748              0.0931690             -2.5750222
Ar             -3.0683717             -5.1011285              4.5064213
Ar              1.8314221             -6.6610073              0.1383898
Ar             -5.2415289              1.0403578             -2.5702401
Ar             -0.5388816              4.0471710              3.6466862
Ar              5.5970928             -0.4663129              2.0281078
Ar              3.1344697             -2.7810316             -4.5829663
Ar             -0.4440615             -2.8274454              5.7424253
Ar             -3.9297886              3.5125686             -5.0432785
Ar             -4.0350807              5.4673934              2.6287720
Ar             -3.8577255             -2.5791336             -2.5273630
Ar             -3.3564564             -1.5054498              3.4773836
Ar              1.5314505             -6.2035381             -3.7289066
Ar              4.6676458             -5.1013525             -1.9744543
Ar              3.7794670              1.5227605             -4.2261184
Ar             -0.0902162              2.9920795             -5.3232324
Ar              1.0612160             -0.3373457             -6.3712670
