42
Energy:            -182.8051
Ar             -0.2021807             -1.0148457             -0.3387800
Ar             -3.4001589              0.5125489              0.2459369
Ar              2.8846964              0.6433499              0.6535760
Ar              1.7437848             -2.0901987              2.7091821
Ar             -1.3950463              1.7756712             -2.6212606
Ar              1.5887276              1.4989447              4.0647268
Ar              1.3475227             -0.5980378             -3.6849682
Ar             -3.1347095             -1.7226257             -2.6944031
Ar             -1.4656156             -0.4345042              3.2267357
Ar             -0.3628735              2.3899127              0.9713139
Ar              2.8880752             -2.6911405             -0.9223229
Ar              2.2508947              2.7107965             -2.2049282
Ar              2.7000751              4.2621395              1.6482304
Ar             -2.8987747             -3.0421454              0.8695552
Ar             -3.5003256              2.6639768              3.2222275
Ar             -5.3313267              1.5283711             -2.6496235
Ar              0.3312920             -4.9096237              0.9226776
Ar              4.9312431             -0.0679962             -2.5025228
Ar             -0.1061187             -3.8781440             -2.6784037
Ar             -3.3936048              4.0918565             -0.4591869
Ar              4.2763425             -4.8513790              1.6412767
Ar              5.6852092              2.8507677             -0.2468366
Ar              0.0652076              5.4616398             -1.0850710
Ar             -4.8010015             -5.1460580             -1.3893199
Ar              5.2745287              1.4678918              3.3197393
Ar              6.1033023             -4.2210582             -1.7080753
Ar             -6.2479858             -1.6691385             -0.4768961
Ar              2.6538011             -6.3314476             -1.6198882
Ar             -6.5939584              2.0303158              1.0447147
Ar              5.9167779             -1.4310247              0.9173750
Ar              3.8593065              6.0104207             -1.4653873
Ar             -1.4892865             -7.0862574             -1.6218816
Ar             -5.5337023              5.6169174              2.1317519
Ar             -6.9187437              4.8322144             -1.4317704
Ar              1.9850397             -5.3236208              4.5161420
Ar             -6.0686184             -4.4545207              2.1691615
Ar              4.9367476             -2.2666191              4.4606189
Ar             -5.1748454             -0.9079660              3.1486233
Ar             -2.9743751             -6.6351318              1.7877260
Ar             -3.0079964             -5.0545248             -4.6532269
Ar             -1.3918621              5.6613164              2.3988201
Ar             -1.5114161             -4.0173023              4.1431730
