42
Energy:            -188.5883
Ar              0.1063885              1.9727202             -0.1919198
Ar              0.5749911             -1.2973596             -1.9078283
Ar              1.7522759              4.8066362             -1.7383854
Ar              2.2726409             -0.5019431              1.2963935
Ar             -3.1894622              2.8257751              1.1500388
Ar             -1.4669727             -0.9158294              1.5040449
Ar             -0.2505650             -5.8263665             -0.2591366
Ar             -2.0746547              4.2487901             -2.1527811
Ar             -2.6724183              0.5063744             -1.7589627
Ar              3.2812620              1.3037335             -1.7922717
Ar              3.0285925              3.2243925              1.5206003
Ar             -2.5625601             -3.0868097             -1.2071683
Ar              2.8955714             -3.8112424             -0.4997947
Ar             -0.0460168              1.8506217              3.4745422
Ar              1.1214024             -1.3890706             -5.7771301
Ar             -3.5648653              2.0339794             -4.9535913
Ar             -5.0999442             -0.4060232              0.8283616
Ar              0.8646543             -3.6588132              2.6237273
Ar             -5.6348262             -1.4198287             -2.7897003
Ar              6.3419712              2.5496077             -0.0367012
Ar              2.1309006             -0.8778947              4.9396023
Ar             -2.3606892             -1.5843824             -4.7020040
Ar             -1.5146271             -2.0844646              5.0314926
Ar              3.1086534              2.8040778              5.2512581
Ar             -5.7127214              2.4792848             -1.7367885
Ar             -3.6359615              0.8290163              4.1839472
Ar              0.1458878              1.7618376             -3.9358842
Ar              6.6881678              0.6964989             -3.3277499
Ar              3.6398787              1.3534522             -5.4763705
Ar              5.2917388              0.6163580              3.1114203
Ar             -0.0286709             -4.4252820             -3.7397175
Ar              4.5468259             -3.0721381              2.8824089
Ar             -0.2565489              5.2006807              1.5001444
Ar             -4.1554216             -4.8470871             -3.9654069
Ar             -5.8805742             -3.9920031              0.1322377
Ar              1.9084503              4.6937500             -5.4538582
Ar              5.0988449              4.1599134             -3.3170610
Ar              5.6250558             -1.1743186             -0.2102746
Ar             -5.3292473             -2.4984766              3.9003689
Ar             -2.7265839             -4.4555320              2.2281666
Ar              6.1067124              4.3037192              3.3576868
Ar              3.9664136             -1.9413167             -3.5138179
