42
Energy:            -184.3467
Ar              0.9684168              0.0784199             -0.6136893
Ar             -0.2237259              3.3449489             -1.6176023
Ar              2.0851350             -3.5478110              0.6240241
Ar              3.9550191              2.3875873              0.3085794
Ar             -1.6398691             -3.9026840              0.5200298
Ar             -0.5409117              0.4355569             -3.9229494
Ar              4.2922501             -1.1367207             -1.3974757
Ar             -2.4839733              1.4673975              0.6807014
Ar             -3.0306429             -1.3502810             -1.6990780
Ar              1.7890477             -3.3893840              4.4285019
Ar             -0.3470403             -1.1512786              2.4302577
Ar             -2.3830960              4.5514845              3.0535001
Ar             -2.7250440             -5.2115614             -2.7755199
Ar              0.7312264              2.5036137              2.1163501
Ar              2.8681809              1.9495168             -3.2189357
Ar              0.2211151             -2.9026616             -2.4614632
Ar              3.9768808              2.4868090              4.2853926
Ar             -3.6791016              2.1545051             -2.8515530
Ar              2.5775073             -1.4767353             -4.8551853
Ar             -3.9853186             -1.5945674              2.3548389
Ar              3.3019226             -0.5769145              2.3579062
Ar              0.6148141              4.0698542              5.3902809
Ar              2.8128220              5.4669678             -1.4263038
Ar             -2.0582189             -2.5834256             -5.3903788
Ar             -3.1625206             -5.1698892              3.6038446
Ar              3.5116170             -4.5783112             -2.7811792
Ar             -2.2586712              1.2134592              4.4937801
Ar              0.3346649             -6.3147370              2.5198974
Ar             -0.6957915              6.7317012             -2.9461937
Ar              1.2163590              0.2661604              5.4495841
Ar             -0.4748119             -5.8613580              6.1869742
Ar             -4.2376689              5.7646804             -4.0711609
Ar              0.5011790             -5.4522501             -5.0450989
Ar             -3.3711787              5.0346490             -0.5168825
Ar             -0.1006239              6.2523318              0.7513749
Ar             -1.3224899              3.7758112             -5.2750344
Ar              3.0663555              5.4910334              2.4062070
Ar              0.5450850             -6.4468316             -1.2918880
Ar              2.0965746              5.1272854             -5.0500711
Ar              1.5448510              1.7212601             -6.7351044
Ar             -2.7074137             -7.4307557              0.4529455
Ar             -1.7164701             -2.3333068              5.6149374
