42
Energy:            -182.5418
Ar              0.1345459              0.1365151             -0.4891081
Ar             -1.1230253              3.5862372              0.7807210
Ar              0.8987836             -2.0900112              2.4103676
Ar             -0.0660389             -3.6739052             -0.7246923
Ar              0.2051592              3.2363264             -2.5296861
Ar             -3.1563658             -1.5920991             -1.1926153
Ar              4.1071248              0.4592989              1.9897378
Ar              2.8838401             -5.5701864              0.6118294
Ar             -2.3796088              3.3690276              4.2906305
Ar             -0.1945300             -5.7079114              2.6546384
Ar              2.5806546              3.5352273              0.5991688
Ar              0.6871220              1.4848919              2.9910187
Ar             -2.8249913              5.7582145             -1.6146467
Ar             -0.1627266             -7.4756906             -0.6290041
Ar             -0.0085398              6.5937384             -4.0603800
Ar              3.3484647              5.1628136             -2.6959334
Ar              1.6171887             -1.9708922             -3.6308067
Ar             -1.3357375              0.1849038             -4.0530835
Ar              1.4472093             -3.9398068              5.5687400
Ar              1.1311487             -5.7038275             -3.6546128
Ar             -2.6809466             -3.0742245              2.1650710
Ar             -1.8916509             -3.5817936             -4.0234427
Ar              3.2991406             -2.0765160             -0.3994274
Ar              0.7850371              5.2745472              3.4741209
Ar              3.3184114              1.1892495             -2.1953345
Ar              0.6516479              6.6058649             -0.3184566
Ar              4.5375125             -4.6313286             -2.7343172
Ar             -3.3898334              2.0480319             -1.6273688
Ar             -2.2637142             -4.4139264              5.6120616
Ar              2.7015955             -0.4386104              5.3891448
Ar             -3.3271043             -5.3709639             -0.7642655
Ar              3.3364441             -8.2324660             -1.9913619
Ar             -2.5876932              3.7740005             -4.8942968
Ar             -2.4113227              6.7650843              2.1007276
Ar             -4.7677595              3.8766575              1.3358359
Ar             -1.2272869             -0.7808037              5.1599170
Ar              3.7051017              3.1862197              4.4580594
Ar              4.3429967             -3.1534353              3.1562948
Ar              0.5453235              2.5266195              6.5062199
Ar             -2.8033054              0.5479303              1.8841470
Ar             -3.6208420              7.4333126             -4.8967252
Ar             -2.2451467             -7.3537495             -3.7889886
