42
Energy:            -186.8558
Ar              0.6504932              1.1097334             -0.2024553
Ar              0.7109730             -1.3498643             -3.0295374
Ar             -2.4549387             -0.0195454             -2.1262775
Ar              2.9793270             -0.8129105              2.1162557
Ar             -1.5440372             -1.7468869              0.8358409
Ar             -0.1522232              0.3645659              3.3660656
Ar              3.8868724             -0.2634053             -1.4471422
Ar             -1.6421222              3.4865511             -2.3843328
Ar             -3.7359761             -0.4681935              3.6862957
Ar             -2.3846165             -2.4128334             -4.9455438
Ar              1.6129666             -3.2667028             -0.1204718
Ar              2.5384191             -4.3846202              3.2541680
Ar             -2.6960975              1.9855839              1.0466193
Ar              4.4710556              1.3080377              4.7393877
Ar              1.6170480              2.1721301             -3.6033430
Ar             -0.2610067             -4.9169441             -2.8586613
Ar              0.4235431              3.8169605              2.5091967
Ar             -5.6997692             -1.0945627             -3.4968686
Ar             -0.6642857              3.9644185             -5.9809624
Ar             -5.2049545             -0.7802014              0.2703870
Ar              3.6389587             -3.7063548             -3.1584865
Ar              1.5245059              4.7791246             -0.9056260
Ar              3.5975093             -0.5250564             -5.2554882
Ar             -4.2532566             -3.8920258              2.2811028
Ar              1.1592220             -3.3949625             -6.0797653
Ar             -0.8979211             -3.2112658              4.1172362
Ar              3.7702851              2.6461399              1.2430789
Ar              1.1389196              2.4244608              6.0845355
Ar              5.5603414             -2.3399066              4.2824617
Ar              2.0702163             -1.4450400              5.7275517
Ar             -3.5547690             -3.6606402             -1.5562426
Ar              4.8682787              3.2987866             -2.2702457
Ar              5.2589424             -3.2903104              0.5015271
Ar             -2.1200779              5.6744732              0.5681706
Ar             -2.4553766              2.9153151              4.7689315
Ar             -3.4808041              1.5174293             -5.2513605
Ar              3.4888017              4.9120221              4.2986825
Ar             -0.0751456              0.2242630             -6.3016343
Ar             -1.4877865             -0.3919451              6.7162551
Ar             -4.0425315             -3.2769936              6.1241955
Ar             -1.1154482             -5.4687571              0.9560873
Ar             -5.2148499              2.4122904             -1.8345565
