42
Energy:            -181.9226
Ar             -2.4857366             -0.7339964              0.8338926
Ar             -0.5697595             -3.6839386              1.5493301
Ar             -0.0818606              4.1146018             -1.2722953
Ar              1.4175233             -1.5732283             -0.8787655
Ar             -0.7492301              4.7143527              2.3421156
Ar              3.1101998             -3.6979972              1.8235210
Ar             -4.3020476             -3.9199205              1.0939003
Ar              3.0069093              5.5821150             -2.6817508
Ar             -2.7245311              6.5098438             -0.3663219
Ar             -0.9513438              0.7686688             -2.3829929
Ar             -1.8969936             -3.1756887             -1.9108748
Ar              1.2515698             -5.1986193             -1.1305180
Ar             -4.4717774             -0.1520584             -2.2844766
Ar              3.8184599              0.2595322              1.4655718
Ar              2.9929065              4.0994553              0.9646324
Ar              0.3892036              1.4319763              0.9957315
Ar             -2.0592033             -6.6707453             -0.1229207
Ar             -3.1895832              2.7683195              0.2332404
Ar              2.7285431              1.7966030             -1.9684849
Ar              4.1486100             -7.1472545             -0.0803520
Ar             -0.5056346              7.0568594             -3.4110681
Ar              1.0901473              7.1624137              0.1262925
Ar             -1.2771347              8.4430010              2.6595112
Ar             -2.5738880             -2.3232029              4.3006507
Ar              1.0233795             -7.0190207              2.1283066
Ar             -3.0724482              3.7841031             -3.3852360
Ar              0.8401311             -8.8729670             -1.2332062
Ar              0.9532702             -1.0267446              3.5961843
Ar             -2.4376897             -6.1275828              3.6219026
Ar              2.3349792              9.4660175             -2.4369624
Ar             -1.9565484              1.4598768              3.8438499
Ar             -1.0762148             -6.5414588             -3.7296334
Ar              0.4813850              3.5688799             -4.8141333
Ar              2.7862551             -6.9796914             -3.9376225
Ar              1.8072054             10.4594091              1.5155708
Ar              1.7987292              2.6441723              4.2065720
Ar              1.0128563             -3.4981117             -4.3384545
Ar              1.5824752              0.0345179             -5.0353089
Ar              2.1138156              6.7007746              3.6625076
Ar             -2.0395530             -1.3481486             -5.1907009
Ar             -1.1586664              9.9265635             -0.9103134
Ar              0.7393170             -4.4912951              4.9314181
