42
Energy:            -182.6577
Ar              0.0871774              0.3557619              0.3636239
Ar             -2.2786895              2.2306501             -1.6628106
Ar              2.4883741             -1.4298706              2.4254820
Ar              3.3548008              1.3282754             -0.2370291
Ar             -3.3053134             -0.2839432              0.9013357
Ar             -1.8126369              2.8416049              2.1910979
Ar              2.0009171             -2.1624866             -1.4634742
Ar              1.7961830              2.2700535              3.0382903
Ar             -1.6855255             -1.4391143             -2.2624347
Ar              0.7901484              3.9408396             -0.5658342
Ar             -0.7432063             -3.1959169              1.0108121
Ar              5.3442003             -1.5462971              0.0622937
Ar             -5.2867505              2.7745906              0.4693652
Ar             -4.3459666             -3.4942317             -0.3240937
Ar              1.0126645              1.1189478             -3.1914012
Ar              3.9835544              3.7309630             -2.8443771
Ar             -4.5383224              1.0543033              4.0628026
Ar             -4.5256393             -3.0562704             -4.0620228
Ar             -0.9571608             -0.4877564              3.8188572
Ar              5.4551472              1.0616378              2.7701090
Ar              1.9772844             -5.8565003             -2.1975381
Ar              5.9059466             -2.7579334              3.4761430
Ar             -1.6568451             -5.1168968             -2.2801463
Ar              8.1619270             -1.5307250             -2.2702628
Ar             -5.3544917             -0.0127400             -2.0804371
Ar              7.5423364             -4.4291153              0.3520801
Ar             -7.7487324             -2.8438041             -1.6404653
Ar              0.4159789              5.8164397              2.5854431
Ar             -5.2879680              3.6003661             -3.2535023
Ar             -6.8750794             -0.6234475              1.4088615
Ar              4.1600324              4.5889804              1.1452605
Ar             -4.6164685              4.9208703              3.4290017
Ar              3.6407472             -4.6795892              0.9341214
Ar             -4.0519230             -2.7858252              3.4173607
Ar             -2.7316452              5.5953678             -0.0538412
Ar              4.6884309             -0.1399799             -3.3506976
Ar              5.1773109             -3.9417484             -2.6891335
Ar             -3.0691966              0.6965290             -4.9726141
Ar              8.6194928             -0.8101387              1.5129773
Ar             -7.8127763              2.6657043              3.2071851
Ar              6.9170334              1.8232887             -0.7804586
Ar             -7.2307295             -4.3250745              1.9061881
