42
Energy:            -186.4487
Ar             -0.1856210             -0.2011398              0.4464450
Ar              1.5648398             -3.2754305              1.1366264
Ar             -1.8503452              2.9186700             -0.2774344
Ar             -0.8243857             -3.2252212             -1.6076802
Ar             -2.0158208             -3.1152052              1.9762289
Ar             -0.7772069              5.7577628              1.8249890
Ar              1.6109451              2.8465434              1.4086297
Ar             -3.8661970              0.1276712              1.2591782
Ar              1.0996729              5.1120735             -1.4167502
Ar              2.4636065             -1.4398451             -1.9089054
Ar              2.3112879             -5.3324062             -1.8166712
Ar             -2.7171560             -0.1342515             -2.3151041
Ar              3.5898859             -0.2548048              1.4256259
Ar             -0.3551957              5.8255888             -4.7964799
Ar              0.6372880             -1.0707195              3.9376171
Ar              1.0601725              4.4629615              4.8114180
Ar             -3.3642404             -3.1940922             -4.4176520
Ar              0.5345863              1.6719629             -2.6964024
Ar             -0.0430772             -1.3735421             -4.7504234
Ar             -2.5112201              6.3059353             -1.5656479
Ar              0.0548865              2.2219160             -6.2782981
Ar              3.2786140             -6.3914326              1.8704572
Ar             -0.4319240             -6.3163194              0.6734717
Ar              0.5002060             -4.9089370              4.2279191
Ar             -5.0459919              2.1213606              4.2892835
Ar             -2.7709213              3.2318276             -3.8491489
Ar             -1.4070112              2.0502228              3.3060219
Ar             -2.9984164             -0.9883570              4.8554917
Ar             -3.1695812              0.2194815             -6.0568095
Ar              3.9361497             -3.0527122              3.9207916
Ar              3.2408655              1.4389676              4.6851019
Ar             -2.7276171              5.0922424              5.0114315
Ar             -4.4016320              4.6673238              1.6158096
Ar              5.2794670              3.1174206              1.9368998
Ar              3.1575704             -3.4067118             -4.9757510
Ar              2.9282127              4.0741090             -4.5216887
Ar             -2.8913958             -6.2450071             -2.1902978
Ar             -4.5030273             -3.0585723             -0.7928900
Ar              3.2622044              0.4138493             -5.0213144
Ar              3.9539354              2.0739901             -1.4852066
Ar              5.0767430             -3.4537427              0.0624294
Ar             -0.1640629             -5.1997593             -4.6840486
