42
Energy:            -189.2931
Ar             -1.3380747             -0.5267833             -0.2544723
Ar             -2.1096120             -3.9038016             -1.5959731
Ar             -3.6937046              1.6640062             -2.3821680
Ar             -2.0597629             -2.9427250              2.4471464
Ar              0.7547504              2.3483609              1.1066891
Ar              0.9786480             -3.4023774              0.3016957
Ar              1.1063616             -0.8955754              2.7396822
Ar              0.3899439              1.6058216             -2.5252186
Ar              1.8067306              0.4747686             -5.7054243
Ar              1.0728911             -4.4792326              3.8775377
Ar             -2.0191656              0.6837976              3.2535286
Ar              1.4068187              4.2303828             -5.0754005
Ar              1.0809522             -5.9304285             -2.3325948
Ar             -2.8060142              3.2431875              0.7465577
Ar              1.0934548              1.6261007              5.3701551
Ar             -1.6724829              2.2259683             -5.6268938
Ar              2.5326806              4.5596396              3.3725907
Ar             -2.0241894             -1.0665811             -4.0597712
Ar             -0.7930571             -1.7040813              5.8531114
Ar             -4.8048854             -0.0956224              1.0002060
Ar             -5.1034667             -4.0144305              0.7019117
Ar              1.2170689             -2.1147558             -3.0288823
Ar              2.8739937             -6.4262882              1.1192542
Ar             -0.7815384             -1.4486753             -7.5165375
Ar              4.5590527              3.0987593              0.4514039
Ar             -4.9180902              2.8371672              3.8603098
Ar              3.0201514             -1.7617727              5.7705512
Ar              2.0256809              4.8924359             -1.4646096
Ar             -1.0294065             -6.3550959              1.0918259
Ar              4.7193158             -1.2734643             -3.9771260
Ar             -1.5449470              4.7500668             -2.5145949
Ar             -1.2680224              4.1964948              4.0928988
Ar             -5.1788301             -1.8037824             -2.3104601
Ar              4.0090590              2.2364535             -3.1535453
Ar              4.1771583             -2.8683260              2.2268021
Ar              4.1942623              0.8988176              3.3227855
Ar             -0.9400741             -4.4571049             -5.1496723
Ar              3.0268431             -0.2623549             -0.4068503
Ar              2.4413911             -3.2505699             -6.3177997
Ar             -2.4666821              1.7153270              6.7573667
Ar             -0.3504447              6.0541664              1.0429001
Ar              4.1888346             -3.8951122             -1.4256793
