42
Energy:            -185.8391
Ar             -0.6816706              1.2197956              0.0460248
Ar             -4.3961893              0.4788159             -0.7201015
Ar              3.5355239              0.6692728             -0.1826397
Ar              1.0456907             -1.5517843              1.5491532
Ar              1.1393183              2.2864396             -2.9014581
Ar             -2.7445002             -0.3111254              2.5021885
Ar              1.1531851             -1.3179925             -2.0464171
Ar             -0.5810402              2.4155921              3.6476224
Ar              1.6846168             -2.0458530              5.0805358
Ar              4.1291713             -0.0488833             -3.7957250
Ar             -1.8554745              0.0988845             -3.2313632
Ar              2.8051177              1.2030185              3.3135603
Ar             -1.2825642              2.6049862             -5.8226932
Ar             -6.1301293              3.6832295             -1.1996689
Ar              2.6918984             -3.7175800             -4.3064870
Ar             -4.0692853              2.0782956              5.0880789
Ar              4.5320935              3.5852379             -2.2351916
Ar             -5.3331765             -2.6567446              1.1952381
Ar             -1.4411015             -3.6421554              3.3051084
Ar              4.7237255             -1.8077291              2.6147799
Ar             -2.0134496             -2.4203121             -0.4512043
Ar             -1.5123931             -0.5219259              5.9629160
Ar              2.7727336              2.6589114             -6.1546371
Ar             -1.1444099             -3.4674745             -4.0482176
Ar             -2.9369329             -0.9727074             -6.5147685
Ar              1.6810470              3.8985459              0.5462193
Ar              2.2163042              4.8224114              4.1468120
Ar             -3.4720846              3.3196344              1.4961606
Ar             -4.9707480              1.6208172             -4.3251676
Ar              2.3743441             -4.8188650              2.4973540
Ar              4.6969392             -4.2667658              5.4741562
Ar              4.8467433             -0.4968247              6.1613739
Ar              4.0919603             -3.0653288             -0.7828948
Ar              0.7689395             -4.8124389             -0.9228517
Ar              5.2123776              3.5297563              1.6841794
Ar             -6.3500717              0.8737874              2.3746555
Ar              1.6145448              1.6171289              6.7112238
Ar             -4.6907056             -2.2724137             -3.2076117
Ar              0.8474255             -0.5818887             -5.6789469
Ar             -2.4305416              3.6038362             -2.1956554
Ar             -5.0028331             -1.7704832              4.9487746
Ar              5.2076713              3.1264385              5.5118224
