42
Energy:            -188.5388
Ar              1.4130556              0.5118875              0.2862613
Ar              4.6296863              1.2610659             -1.2888719
Ar             -2.4354348              0.8738267             -1.7870535
Ar             -0.2574272             -2.4429630             -1.0016720
Ar             -1.9371022             -0.4916292              1.5749901
Ar              3.2724851             -2.2278298             -1.8910308
Ar              3.8296464              2.2999155              2.4856124
Ar              4.4009732             -1.3533541              1.5414009
Ar             -4.9486893              1.4501337              1.0070789
Ar              1.1796861              4.9931879              3.0428210
Ar              2.1981737             -4.8050048              0.7056159
Ar             -1.1454628              3.1023857              0.8265113
Ar             -3.7695187              4.5535701              2.9071217
Ar             -0.5447839              3.8684559             -2.8390051
Ar              2.2816826              4.0672730             -0.4577070
Ar              3.3761716             -0.3693108              5.0907747
Ar             -2.4263654             -5.2632330             -2.1054194
Ar             -4.2023018             -2.2038034             -0.8290308
Ar             -5.0839560             -1.9221653              2.8558812
Ar              0.9075959              0.4043681             -3.2629873
Ar              1.0090135             -2.1403729              2.8326412
Ar             -0.2700396              0.4137346              7.0769306
Ar             -1.9374908              1.4911901             -5.4711266
Ar              0.3731765              1.3820201              3.6672960
Ar              3.0088871              3.3059423             -4.1181950
Ar              1.5267741             -2.5638352             -5.2819657
Ar             -2.1093177             -1.9922058             -4.0828829
Ar              4.4135248             -0.1501180             -4.7755792
Ar              3.9106330             -4.0940199              4.0907659
Ar             -1.2348819              3.9944864              5.7721309
Ar              1.2440462             -5.3480338             -2.8607930
Ar             -3.9751259              4.3330510             -1.2116309
Ar              0.2428798              4.4318661             -6.4620614
Ar              0.3768975             -5.5950284              4.0380681
Ar             -1.1811154             -5.1390260             -5.7972602
Ar             -2.1041780             -4.2168395              1.6337383
Ar             -1.2088911             -1.6070853             -7.6636387
Ar              2.4820841              3.1383831              6.1260328
Ar              1.2801543             -3.0176692              6.6162809
Ar              1.5223281              0.9217559             -6.8923450
Ar             -3.3296369              1.1607158              4.5318404
Ar             -1.9731143             -2.3099201              4.9380126
