42
Energy:            -181.2857
Ar              0.4936583              0.3754835             -0.3529658
Ar              1.6213011             -2.5942248              1.3242415
Ar             -0.7375190             -2.9706021             -1.5911422
Ar             -0.9243745              3.5305570             -1.7841424
Ar             -1.9687903             -1.5261661              1.5801844
Ar              1.8543395              3.5201590              0.8327440
Ar              1.1884332              0.6031801              3.1776769
Ar              2.8894071             -1.8171762             -2.1859396
Ar             -1.8561269              2.2029030              1.8049852
Ar              2.8716150              2.1206129             -2.4704536
Ar             -2.8630399              0.3988268             -1.6002646
Ar             -1.6052974              1.3606415              5.4464314
Ar              4.3249269              2.5906981              3.5599651
Ar              0.0156055              0.0508062             -3.8712750
Ar             -4.6136066             -2.6751769             -0.9948159
Ar             -2.9541762             -2.1322875             -4.4491924
Ar              4.0377962              0.2868320              0.6559266
Ar             -2.9706327              1.7224821             -5.1213419
Ar             -0.2321260             -2.3761323              4.7744407
Ar              0.6586543              3.3626485             -5.2781646
Ar              4.1144338             -1.4608192              3.9916799
Ar              0.8333120              4.0942316              4.3350755
Ar              1.0232608             -3.1990311             -5.1530306
Ar             -4.0023281             -1.3576390              4.6341403
Ar             -1.5216843             -5.6843336             -4.1329269
Ar             -5.1734383              0.3767615              1.2468373
Ar              5.1614614             -3.3265614              0.7643246
Ar              2.5809331             -4.9319289              3.9904677
Ar              4.4581114              3.6487990             -5.4760333
Ar             -2.7638205              4.9401057              4.5290262
Ar              3.2710909              0.0088824             -5.5696642
Ar             -4.7859169              3.4243477             -2.2911191
Ar             -2.9620601             -5.9696289             -0.7047067
Ar             -0.9972047              5.7870550              1.3732632
Ar              5.4637329              3.6552328             -0.1011203
Ar             -0.8628461             -5.1103380              2.2356955
Ar             -4.5089848             -4.2487219              2.3514286
Ar             -4.7411950              4.3651090              1.3204720
Ar             -2.4733447              5.3967361             -4.7064582
Ar             -3.3169218              6.7145724             -1.3235606
Ar             -5.1831068              2.1863279              4.4461428
Ar             -5.2108149             -5.1426807             -3.7219168
