42
Energy:            -182.9798
Ar             -1.4113156              0.0341575              0.3904493
Ar              1.4460909             -0.2191197             -2.0129525
Ar             -2.8611491             -4.3581702              1.5230278
Ar             -1.9975808             -0.0412609             -3.2292656
Ar              2.0560106              0.5456164              1.5903851
Ar             -5.1428804              1.6055823             -2.1004311
Ar              4.1655889             -2.0283850             -3.8966476
Ar              4.9113783             -0.3793444             -0.6113187
Ar              4.2769550             -2.5694815              2.3354680
Ar             -4.1095449             -1.1168507              2.8199329
Ar             -4.3972346             -1.8105484             -0.8582846
Ar             -2.8386457              3.1645016              4.9712002
Ar              5.5024635              1.0330240              2.7683823
Ar             -4.7966489             -0.3004411             -5.5832648
Ar              4.1949096              1.8691536             -3.4907432
Ar             -0.8818040              0.1645693              3.9828633
Ar              0.3227063             -2.4651430             -4.8411765
Ar             -4.0350692              2.3860507              1.4633901
Ar             -0.4443161              3.3297580              2.0657236
Ar             -3.1896005              3.1307070             -4.9427516
Ar              0.5290562              2.6194077             -4.2692999
Ar             -1.8286018             -3.2760393              5.0248536
Ar              4.6606607              2.2443689              6.1304414
Ar              0.5051525             -2.7481218              2.1195507
Ar              1.8977516              3.3114166             -0.8439080
Ar             -0.9072950             -3.1529056             -1.3797159
Ar              2.6675892             -3.5312412             -0.8489253
Ar              5.5629679              3.2827609             -0.2104956
Ar             -1.8045871              3.2609845             -1.4312188
Ar             -7.0614028              0.2202329              0.8853647
Ar             -2.4306582             -2.8725661             -7.5672629
Ar              6.3582241             -3.7752463             -1.0313280
Ar             -6.2460750              1.5524577              4.3922407
Ar             -3.4134990             -3.4699380             -4.0571976
Ar              6.2505706             -1.4377894              5.3940506
Ar              2.4602216              0.1960161             -6.3638863
Ar             -1.2387294              0.5332246             -6.8271206
Ar              7.8446912             -1.6193587              1.7008284
Ar              3.2121039              3.9367401              2.7379124
Ar              0.9950067              2.8657855              5.5607257
Ar              2.5448093             -0.6745883              5.0392121
Ar             -3.6210941             -0.2354548              6.4849408
