42
Energy:            -188.2719
Ar             -0.7141752             -1.2756260              1.0422811
Ar              1.4725703              1.3094936             -1.5261848
Ar             -3.3445355              0.8895713              2.4829548
Ar             -3.0044074             -2.5573778             -1.5450337
Ar              2.6630696              0.0751275              1.6480694
Ar              0.2790068             -0.5453464              4.4776748
Ar              2.4406463             -1.7719419             -4.9066877
Ar             -0.7419492             -0.6309186             -3.5709086
Ar             -0.0656056              2.3889702              1.8710887
Ar              5.4226158             -2.3117186             -2.5064425
Ar             -1.9250633              0.5393651             -6.8325053
Ar              3.4736385              4.0717334             -2.8516818
Ar             -4.0823329             -2.7549746              1.9543378
Ar              1.9766113             -2.3142348             -1.2128788
Ar             -3.3579599             -1.1343889              5.4814651
Ar             -2.2244399              1.3823394             -0.9301194
Ar              2.5319176              2.4697428              4.5396661
Ar             -4.3535100              0.3736661             -3.8385365
Ar             -1.4762492              2.6252265              5.2758711
Ar             -0.0458001              4.6285372             -1.1255076
Ar             -3.2193386             -2.8385023             -5.3501385
Ar              3.2251652              3.7396604              0.9179004
Ar              2.1445200             -3.4020167              2.5324086
Ar              5.5482508             -2.0948769              1.2963691
Ar             -5.6104419             -0.1242271             -0.3191467
Ar             -0.4582089             -4.8614049              0.2235047
Ar             -5.1173689              3.4603300             -1.7940284
Ar             -3.0649069              4.4282121              1.2584147
Ar             -0.2612683             -4.2974028             -3.5016609
Ar             -6.3895056             -2.6901431             -3.0679622
Ar             -1.2249914             -3.9261581              3.9152823
Ar             -1.8854258              3.1921784             -4.0814310
Ar              4.9365478              0.9533953             -4.5317539
Ar              5.1567600              1.0567303             -0.8707410
Ar              3.9773839             -5.2429754             -0.1090306
Ar              3.3362372             -5.2034102             -3.7537725
Ar             -5.2209141              2.3449545              5.3413529
Ar             -6.4513041              2.8921365              1.7532803
Ar              4.0594707             -1.1012914              4.8495015
Ar              1.3960293              1.9067216             -5.2566784
Ar             -6.6917993             -0.5342430              3.3942786
Ar              5.8424676              1.5651446              2.7980379
