42
Energy:            -190.4326
Ar             -0.2464168              1.5319454             -0.1122861
Ar              1.5639180             -1.6009980             -0.7292792
Ar             -3.2690720              0.9309877             -1.9070281
Ar              2.4881780              0.6001179              2.1142227
Ar             -1.0376315             -1.6766514             -3.5256391
Ar             -0.5291846             -1.2603032              2.4710698
Ar             -3.2607223              0.9502309              1.7568051
Ar             -0.2476495              1.9424659             -3.8479735
Ar              3.0960426              1.7226762             -1.2850126
Ar              3.2497315              3.3064647             -4.5587180
Ar             -4.2660591             -2.4948183              2.9638311
Ar             -2.5872731             -2.2046343             -0.2556180
Ar             -2.9116749              4.4502782             -2.7024460
Ar              2.6837427             -2.9768958              3.0142893
Ar             -0.3590126              2.3932440              3.6552233
Ar              6.0258567              0.7214980             -3.1467552
Ar              5.5437309              2.5276051              1.4870093
Ar              4.9288826             -2.9178858             -3.0242073
Ar             -6.3328651              0.6346574              3.6848391
Ar              2.4725119             -0.5012256             -4.2316282
Ar             -3.4144807              0.6778925             -5.5488897
Ar             -1.9727367              4.5366348              0.9698859
Ar             -2.3444790             -5.1873470             -2.2683477
Ar              4.5954754              5.0521364             -1.3106821
Ar             -3.1440564             -5.8273473              1.6489943
Ar              5.3075197             -0.4121717              4.1562559
Ar             -0.9909257             -4.2459335              4.4143824
Ar             -3.9452839              3.6136625              4.1459914
Ar              5.1561345             -1.1238090              0.2809793
Ar              0.1401413             -4.6160944              0.6982710
Ar              3.7958655             -4.7245419             -0.0334670
Ar             -6.1069082             -0.5763387              0.0065783
Ar              0.7950514              4.8174176             -1.8614236
Ar             -2.6535922             -0.0464367              5.3177787
Ar             -6.5960159              1.3590253             -3.2888541
Ar             -5.7456082             -4.2517848             -0.4008272
Ar             -4.7878422             -2.1396093             -3.3316066
Ar             -5.4981393              3.2641332              0.0136093
Ar              1.3917362             -4.4804592             -2.9975122
Ar              3.3406739              2.8640637              4.8420275
Ar              1.3779522             -0.4313930              5.5389395
Ar              2.0773429              4.2152480              1.5038249
