42
Energy:            -188.1112
Ar             -1.1887733             -0.9419116             -1.1603324
Ar              2.0185092             -1.5459348             -2.7693633
Ar             -0.3184483              0.9690419              1.9762598
Ar              1.7685287              1.6514519             -1.0373550
Ar             -1.1430855             -2.6360223              2.0133435
Ar             -0.9324096             -3.4176892             -3.9173422
Ar             -0.5059977              4.3105625              0.0552679
Ar              2.1905151             -1.4946439              0.8950043
Ar              0.9540086             -4.4791685             -0.8672951
Ar             -3.7689420             -0.1105895              2.9474684
Ar              4.6621756             -3.8141253             -1.4477925
Ar              1.6958201             -3.2725629              4.3120035
Ar             -4.7829238             -1.5377806             -0.3157501
Ar             -2.4172011              3.9588314             -3.1015010
Ar              1.6151401              3.9123453              3.0752263
Ar              5.1019879              3.4122118             -2.1694692
Ar             -4.5328401             -3.8938596              2.6418572
Ar             -4.0221375              5.5483542              0.1589748
Ar             -2.7178061             -4.6028742             -0.7087900
Ar              3.5565425             -5.0937360              1.7869991
Ar             -2.4871972              3.6347543              3.2316804
Ar             -3.3025895              1.9081079             -0.0763701
Ar              1.3999848              4.4274799             -3.3672236
Ar             -3.6895860              1.6277418              6.2483907
Ar              3.3441417              1.3326242             -4.6455493
Ar              4.4173182              2.0152297              1.4684343
Ar              2.5510146              0.3435193              4.2222287
Ar             -0.1300195             -6.1644390              2.2433729
Ar              3.0017335              5.4156358              0.0070425
Ar             -3.9291893              0.4857346             -3.4168199
Ar              2.5026182             -4.8416448             -4.4090424
Ar             -0.3112485              1.0339799             -4.1538227
Ar              5.1318708             -0.1893425             -1.4032082
Ar             -4.4922802             -2.0944285              6.0241831
Ar              1.4267086             -1.6006624             -6.3681923
Ar             -4.6027252             -3.1588576             -3.7257874
Ar             -0.0669405              2.6026307              6.0330495
Ar             -0.9638271             -0.8636779              5.2685747
Ar             -1.7753311             -4.5491104              5.2003540
Ar             -2.4160108             -1.1454895             -6.4253538
Ar              5.5377678             -1.6980055              2.1823812
Ar              5.0505814             -2.0287788             -4.8217583
