42
Energy:            -184.8656
Ar              0.1308876             -0.3459273             -0.1360080
Ar             -2.6208947             -0.5723316              2.0733092
Ar             -3.1267773             -0.9955377             -1.4398207
Ar              2.9433091              0.2932992             -2.2471598
Ar              3.2650486              0.1508625              1.5096926
Ar              1.1125925              3.1979720             -0.7459471
Ar             -0.0128136              1.9959921              2.6896368
Ar              0.6954485             -2.0758834              3.0370123
Ar              3.4386117              3.3401850              3.3799290
Ar             -2.4546226              2.4538468             -0.2044154
Ar             -1.5729456              4.4757969             -3.3963449
Ar              3.6638386             -2.8727452              5.2316383
Ar             -2.6407977             -3.5231640              4.1719822
Ar              3.1499285             -2.7832787             -4.3378999
Ar             -6.4912476             -1.5672904             -2.6023553
Ar             -3.8095707              2.6387207              3.3496190
Ar              3.9208532              0.6416755             -5.7867462
Ar             -3.7736466             -4.4095261             -2.5175976
Ar              0.4213965             -0.8610827             -6.2876980
Ar             -3.2389695             -1.4592641             -5.0435026
Ar             -0.2883000             -2.7426432             -3.0142366
Ar             -4.5418086              1.8260384             -3.2485100
Ar             -5.5311526             -0.7724885              4.1913178
Ar              1.9898531              0.4551727              5.3912259
Ar              6.9880901              0.3433775              0.7650424
Ar             -1.8221416              0.1270388              5.5257399
Ar              5.6459837              0.2392523              4.3098397
Ar             -5.1418448             -3.0345770              0.9067209
Ar              6.4522645              1.3409980             -2.9633692
Ar             -0.6737404              0.9813207             -3.3501237
Ar              2.3978138             -3.1584520             -0.3680237
Ar              5.3720383             -2.8707403              1.9485979
Ar             -2.5739146              1.9497419             -6.4348904
Ar              0.1888507             -2.7847257              6.6827615
Ar              4.7656702              3.1553137             -0.1166419
Ar             -6.2906070             -4.4888346              4.1887570
Ar              0.9483654              2.9660999             -6.0350019
Ar              5.7420778             -2.1356229             -1.7235268
Ar             -1.4104301             -3.7669294              0.4590825
Ar              3.5531394              3.7627321             -3.5724772
Ar              4.5565692              2.7196802              6.9586175
Ar             -5.7658719              0.7362453              0.5152998
