42
Energy:            -181.7754
Ar              1.9454594              0.2324026             -0.2099046
Ar              0.5439577              3.3971517              1.1364318
Ar             -0.5343980             -2.5668281             -0.3049323
Ar             -0.1434354              2.5138793             -2.3506239
Ar             -2.6153321             -5.4694605              0.6082401
Ar             -1.8028404              0.7026867              0.5656122
Ar             -2.7287115              3.5058363              3.2603763
Ar              2.9481366             -3.3414753             -0.2528771
Ar              1.6210779             -1.9837674              2.8578888
Ar              2.8321207              4.5733427             -1.5206162
Ar             -2.1977537             -0.4190159             -2.9905150
Ar              0.8099938             -5.4852086              1.8886727
Ar              3.1968454              1.5136658             -3.5810317
Ar              3.6798462              4.9699609              2.3181352
Ar             -5.1352344              1.2724556             -1.1252553
Ar             -5.5857511             -4.0069987              2.5340145
Ar             -2.5530581             -4.0933215             -3.0703684
Ar              5.1651796             -1.1706456              1.6986002
Ar             -2.9260609              4.1542106             -0.3308216
Ar             -2.1105528             -2.5330039              2.9771447
Ar             -4.1712164             -2.1415839             -0.2826468
Ar             -0.4059759              6.2972179             -1.8610704
Ar              6.0432550              6.0124040             -0.3684032
Ar              4.0977870             -4.6737035             -3.4238131
Ar              3.7551200             -6.9306390             -0.1930848
Ar             -0.9417296              6.6245122              1.9531955
Ar              0.6110748             -5.7009910             -1.9418842
Ar              5.2031407             -1.1383495             -2.0688461
Ar             -5.7372590             -5.3916617             -1.3623528
Ar              3.0117748              1.4675131              3.2093290
Ar             -4.7323541              0.1689495              2.6923621
Ar              5.1094585              2.1695808              0.0267137
Ar              2.3233633              7.7750520              0.3195214
Ar              0.7394370              4.2974678              4.6836620
Ar             -3.4336554              3.1337834             -3.9254605
Ar             -2.6605906             -7.7564759             -2.3262158
Ar              4.3722414             -4.6913675              2.8900852
Ar             -6.1096340              3.5794406              1.6593728
Ar              7.9158256             -3.3454957              3.0689013
Ar              1.4068335             -1.8615358             -3.3408672
Ar              6.5021896             -4.2575218             -0.3293654
Ar             -0.5428560              0.7271100              4.0464680
