42
Energy:            -180.8106
Ar              0.7772924             -0.3234046             -0.6141370
Ar             -0.5461506              2.3765159              1.1499909
Ar              0.0044544             -3.2309337              1.1430479
Ar             -1.5158694              4.8662320             -1.1389219
Ar             -1.9261828              5.4282696              2.6076033
Ar             -1.7918870             -2.4736173             -2.1024181
Ar              1.8253024             -3.8763108              4.2085113
Ar             -0.7259876             -6.4342711              2.6821955
Ar              1.3725295              2.8234280             -2.2262110
Ar             -0.3583035             -4.8117741             -4.6213545
Ar              0.7224733             -0.3030799              3.2860003
Ar             -0.5614354             -5.9695979             -1.0466091
Ar              1.6001229              5.2571796              0.7617810
Ar              3.5304587             -1.9821930              1.2102970
Ar             -2.1672167              1.3372802             -2.1719412
Ar             -2.4576655              1.7249471              4.1593650
Ar              0.6239752             -0.4254181             -4.2548458
Ar              0.4907614             10.1446081             -2.6733106
Ar             -4.6037629              4.2557866             -2.9669614
Ar              1.1236881              3.5936756              4.1440722
Ar              1.0622932              7.6147173              3.5073871
Ar             -2.3656789              7.6184831             -3.3338165
Ar              2.3720889             -7.0375042             -2.9773487
Ar              2.0530289             -3.3654666             -2.1104565
Ar             -3.5026013             -4.2442884              0.7225334
Ar             -4.4154646              6.7818390             -0.0301846
Ar             -0.8254577              8.1796525              0.2249718
Ar              2.7011344             -5.7274415              0.7905473
Ar              2.5812464             -7.5942507              4.0702263
Ar              4.5221052              4.5698706             -1.3890512
Ar             -3.7725460             -5.6250339             -2.8365362
Ar             -1.1461543              4.0902900             -4.7088693
Ar             -2.6468232             -0.6089563              1.1235430
Ar             -1.2871202             -8.4364714             -3.6538927
Ar              4.0437749              0.0989254             -2.1494443
Ar             -2.0622781             -2.9488701              4.1217547
Ar             -4.2722438             -6.1885789              3.7915724
Ar             -4.1686548              2.9382386              0.7026384
Ar              2.9216710              8.5963104             -0.0543572
Ar              3.1678721              1.8833615              1.1623292
Ar              1.3381687              6.5015746             -2.8073382
Ar             -3.3714644             -7.9614192              0.3002114
