42
Energy:            -185.1699
Ar              0.8637391             -0.6529601              0.6487551
Ar              1.4555218             -1.3565625             -2.9706197
Ar              1.3007778             -1.2272149              4.2702971
Ar              1.1645874              2.1915509             -3.8375322
Ar             -0.8751266              1.6346803              3.0646200
Ar             -1.8772387             -0.0851175             -3.8765072
Ar             -2.0268669             -1.8498440              2.4921226
Ar             -0.9078842             -3.6525676             -4.7576397
Ar              0.4648217              2.8810549             -0.2207240
Ar             -3.0392335              4.5830356              3.2502830
Ar             -1.4991614             -2.7566336             -1.1710962
Ar             -2.4048210              0.6971657             -0.2649671
Ar              2.0125142             -3.8754948             -0.4052739
Ar             -2.1901370              3.4778660             -2.8017164
Ar              2.4652375             -4.5776248              3.1781427
Ar              2.7861425              1.8032543              2.5891168
Ar             -4.9675525             -1.9703482              0.1842276
Ar             -4.4331387             -2.8099413             -3.4587334
Ar              6.2490124              1.9812573              1.3297151
Ar              0.8713032              5.0326950              2.7910394
Ar             -0.8518371             -5.2920285              1.4880843
Ar              5.0057584             -2.2681945             -1.9832508
Ar              1.1733230              5.6859508             -2.5217645
Ar              4.5378764              3.8139565             -3.3822133
Ar             -4.6770773              3.6075722              0.0257709
Ar              7.0460192              1.0198043             -2.2569579
Ar             -4.3094871             -4.7092343              2.8716787
Ar              3.5506047              1.0648450             -1.0803369
Ar             -5.2805547              0.8409065             -2.5285297
Ar             -4.5829407              0.9493562              2.7260686
Ar              3.6888498              4.6289003              0.1687468
Ar              4.2994951              0.2499759             -4.7450603
Ar              4.3061369             -1.5159398              1.6562809
Ar              4.7061837              4.7483069              3.7604762
Ar             -3.8844224             -5.5363666             -0.8193167
Ar              5.3273907             -5.0700231              0.6411907
Ar             -4.4181883              6.4765808             -2.4398429
Ar             -1.6180600              5.9180090              0.0503134
Ar             -0.3279329             -6.2425253             -2.1076194
Ar              2.2015639             -7.4120521              0.5769683
Ar             -0.8945431             -4.2756527              5.0720158
Ar              2.7230969             -4.7442242             -3.9204164
