42
Energy:            -184.1477
Ar             -2.1883462             -1.5192877              0.5563102
Ar              1.2791689              1.8165214              1.2679284
Ar              0.0897645             -0.9629044              3.2237498
Ar             -1.1707541              1.3789685             -1.2774125
Ar              0.4287848             -1.8786226             -1.9227773
Ar             -0.5798253              0.5821629             -4.8180096
Ar              2.4295708              1.0870237             -2.2092131
Ar              2.8800257             -1.3648567              0.7954725
Ar              0.3978215             -4.1350865              1.2565782
Ar             -2.3074846              1.8141998              2.2403180
Ar             -3.2217003             -1.2300015             -2.9868982
Ar             -0.5827890             -4.0821862              4.9905008
Ar              2.6282482              2.4124856             -5.6307487
Ar             -3.6620495              2.5099783             -3.7597894
Ar              0.5093121              2.3903246              4.8388946
Ar              2.9607124             -3.2564790              3.9957380
Ar             -4.0952578             -3.1531366              5.8185344
Ar             -0.9392103             -3.5103767             -4.9086223
Ar             -2.4414324              0.2352363              5.6516853
Ar             -4.7401439             -4.4342346             -4.0675080
Ar             -0.0664256              4.0832118             -3.3936201
Ar              2.5446429              4.6034052             -0.7150046
Ar              1.1684765             -0.9391816              6.6835341
Ar              2.2233631             -4.4864995              7.4935164
Ar             -0.2857265              5.0276597              1.9505754
Ar              3.3216736              4.2811390              3.0798889
Ar              4.3071350             -2.5044188             -2.3195242
Ar              5.3589117              3.1886000             -2.9600858
Ar             -3.2777316             -4.4921459              2.3393371
Ar             -2.1217968             -4.6380630             -1.4314493
Ar             -4.8365887              0.9799407             -0.4187641
Ar              3.0975005              5.9248386             -4.2258985
Ar              2.3613804             -1.5029243             -5.2343086
Ar              4.9153604              1.8137818              0.5711273
Ar             -5.4424826             -2.9113643             -0.4501419
Ar              1.5846493             -5.2870490             -2.3113312
Ar             -4.8902500             -0.9173784              2.9152732
Ar              3.5789407              0.4950865              3.9617110
Ar              0.7889695              6.0726570              5.3871393
Ar              4.0048448             -4.9146866              0.6429325
Ar             -2.6598800              4.3173400              4.9461860
Ar             -3.0239250              4.4293974             -0.5235609
