42
Energy:            -180.7931
Ar             -0.5974495              1.6279036             -0.6580065
Ar             -2.4939361              3.2220023             -3.4222751
Ar              2.9949899              0.7694655             -0.3828982
Ar             -2.1380532             -3.4605479             -0.4694922
Ar             -1.8872213              4.7245656              1.4854505
Ar              0.5507871              2.1329774              2.7457503
Ar              1.2161919             -2.1573601             -2.0532346
Ar              1.6021647              4.6647254              0.3141961
Ar              0.3524142             -1.3601889              1.3730462
Ar             -5.4096558             -3.1555714              2.0264215
Ar              3.2899744             -3.4259058              0.9663162
Ar              4.9472984              4.0750882             -1.0669446
Ar             -4.2723359              2.5304154             -0.1680723
Ar              5.0974285             -2.5226274             -2.0993096
Ar             -3.1994889             -0.3896869             -2.1937331
Ar             -3.0405569             -0.3803658              1.5747924
Ar              4.2174051              2.9415377              2.4314795
Ar             -6.0820752              1.8541791             -3.3425322
Ar              5.1399845              3.3815600             -4.7658802
Ar              5.9812662             -0.7975551              1.1221119
Ar             -4.1326375             -1.2194602              5.0927959
Ar             -3.6482672              0.2518199             -5.8091614
Ar             -6.2744416              0.9043833              2.8466926
Ar             -1.8992074             -3.6446560              3.2802038
Ar              1.7442295              3.2746732             -3.0821073
Ar              7.6924556              2.4617966              1.0976185
Ar             -0.2355607              0.4032362             -4.3060345
Ar              5.5741991             -3.1399924              4.0537409
Ar             -0.4045798             -0.5884698              4.9793952
Ar              6.4708937              0.9446741             -2.1684800
Ar              3.4311415              0.0889829             -4.1351641
Ar             -6.4397274             -0.6376080             -0.5199133
Ar             -2.9341720              2.2628526              4.1233100
Ar              1.6960052             -3.7114281              4.3309612
Ar              6.8833124             -4.4490447              0.7126735
Ar              8.8108072             -1.7605554             -1.1177319
Ar             -7.9437811              2.8306686             -0.0006950
Ar             -1.7376661             -3.0422072             -4.3152319
Ar              2.6248088              2.1875443              5.8816694
Ar             -5.5720094              4.6006396              2.6214133
Ar              3.1409567             -0.4505452              3.4007483
Ar              6.4709868              0.7477148              4.5039164
