42
Energy:            -185.0829
Ar              0.2705412              0.1788507             -0.7323984
Ar             -1.5801257              0.4154210              2.2631269
Ar              2.1767755             -0.0805720             -3.7759330
Ar             -1.6172895              0.8439439             -3.5718766
Ar              2.0603556             -0.3637363              2.2160560
Ar              3.7571981              1.3725651             -0.5908165
Ar             -3.3595779             -0.8885720             -0.6867953
Ar             -0.1782180             -1.9776581              4.6523090
Ar              0.7129379              3.4103515             -2.2928813
Ar             -2.4995893              2.8240539             -0.4131863
Ar              0.6521154              1.6653989              4.7596976
Ar              3.9047723              3.3117795             -4.0162196
Ar             -3.6715278             -2.4739539              2.9148609
Ar              0.8356946              3.1637534              1.3874130
Ar              2.8207977             -3.7844967              3.1459638
Ar             -0.7114926             -2.6760396             -2.7277193
Ar             -2.4760616              4.3656424             -4.0067502
Ar              0.5833021              2.4016777             -6.0330790
Ar             -3.9885769             -1.7989740             -4.3988872
Ar              2.9293842             -2.4151741             -0.7497836
Ar             -2.1527335             -2.7372086              7.6538936
Ar             -0.4399832             -1.3613979             -6.2512770
Ar             -2.2226614              3.7814580              3.5805216
Ar             -0.9204061              3.6275392              7.3428348
Ar              0.9954800              5.9550044             -4.9524015
Ar              1.8174395             -3.6005881              7.2500427
Ar             -3.1693813             -4.6287244             -0.6669793
Ar             -3.2523488              1.5591242             -6.6917816
Ar             -5.0739907              1.2757870              2.0385894
Ar              0.9202174             -5.6191322             -1.1506939
Ar              4.0322387              2.5619104              3.2586196
Ar              2.4156605             -3.7906688             -4.3057874
Ar              5.5795450             -1.0009663              2.0207525
Ar              1.3820120              5.2259479              4.5086864
Ar             -0.3797270             -2.9487687              1.0861325
Ar             -2.7976999              0.5531295              5.7361400
Ar              3.4972585             -0.6546869              5.5466094
Ar             -5.1156265              1.6665628             -2.9646784
Ar              3.0844311              2.8686982              7.1457076
Ar             -1.6504970              4.9490090             -7.6181713
Ar              0.4930586             -0.0415580              7.9516817
Ar              3.5211461              5.0711027             -0.4072619
