42
Energy:            -181.9033
Ar             -0.6876342              0.7102887              0.2084858
Ar             -0.9151148             -0.9080078             -3.3812258
Ar              0.1441420             -1.9179381              2.6400875
Ar              0.1109167              1.5956674              3.7121456
Ar              1.5907266             -2.0059184             -0.8651423
Ar              2.8682691              0.3678039              1.5202595
Ar              1.6145406              1.5882349             -4.4654206
Ar             -1.5335243              2.7207722             -2.6008083
Ar             -1.9145802             -2.6654465             -0.2747257
Ar             -3.2980689             -0.5260444              2.4225735
Ar             -3.8501180              2.8181907              0.5605827
Ar              3.5545121             -3.3031084              2.0587620
Ar             -3.3585809              2.7859749              4.2290599
Ar              2.0221383              2.7942743             -1.0222449
Ar             -0.5537378              4.3605287              0.9506022
Ar             -4.0885841             -0.0577832             -1.6547687
Ar             -2.6436966             -4.3373277              2.9239567
Ar             -3.7693045             -3.4974761             -3.3400316
Ar             -5.1933570              3.3457806             -2.9405922
Ar              6.2624381             -0.9448679              0.8792491
Ar              2.7980119              3.9544142              2.5687167
Ar             -5.4872398             -3.1208172              0.0716179
Ar             -3.4969033              6.1104655              2.4436109
Ar              0.5202392             -5.2368143              0.8348045
Ar             -0.1389550             -4.6474295             -2.8775880
Ar              4.5963314              3.7726477             -3.4343623
Ar              4.8063414             -3.5867650             -1.5716298
Ar              4.3209984              0.1358751             -2.1652918
Ar              2.8175488             -0.9953357              5.0076573
Ar             -5.7875780             -6.2220129              2.1487665
Ar             -2.4919658              5.3373018             -5.0261578
Ar              0.6081635              5.7478742             -2.6881977
Ar              1.1100315             -4.8406968              4.5935348
Ar             -0.3743370              5.2149202              4.5565239
Ar              6.9974112             -4.6384661              1.3551903
Ar              2.4675632             -2.2289681             -4.4502850
Ar             -6.0373485             -2.6811415              3.7250978
Ar              5.5033134              1.4698054              3.8277594
Ar             -3.0203132             -6.1161544             -0.5271296
Ar             -6.6563144              0.3272202              1.1406078
Ar              5.5510899              2.7604902              0.2262046
Ar             -2.9917931              6.0009326             -1.3379997
