42
Energy:            -186.3397
Ar              0.0356424              1.8559192              1.3172678
Ar              3.7162188             -3.4958031              1.4086930
Ar             -2.8650699              3.2468218             -0.7389697
Ar              2.3878749             -0.3641970             -0.5139468
Ar             -1.8138636             -1.9973253              2.7156547
Ar              3.6819615              2.0585442              1.9986900
Ar             -2.0910307             -0.4357979             -0.4621332
Ar              0.0287359              1.8175678             -2.4371982
Ar             -1.1659464              1.0037242              4.8162419
Ar              3.2195649              3.2435265             -1.4848552
Ar             -0.0249116             -1.6448570             -3.1739644
Ar             -3.1736300              0.3050013             -3.8910921
Ar              1.5860722             -0.9912462              3.0286417
Ar             -3.8715103              1.2056591              2.2930883
Ar             -1.9675059              3.7842682             -4.8051120
Ar              3.1614442             -3.4280429             -2.5090154
Ar              0.2679127             -3.3514807             -0.0288768
Ar              0.4827908             -4.8528295              3.3139520
Ar              1.4683161              3.5076205              4.6029109
Ar              1.8395208              3.7337379             -5.0287101
Ar             -1.9329548              4.4571537              2.8986600
Ar             -3.2943689             -3.3399051             -2.2454967
Ar              0.0670599              5.4481776             -2.0549198
Ar             -3.1208270             -4.7889140              4.7300877
Ar              3.0627039              0.2074406             -4.1084612
Ar              1.7497819             -2.8790819             -6.0887941
Ar             -0.4195273             -2.4191503              6.1075742
Ar              5.2452299             -0.8008560              3.7523617
Ar              3.1890145             -3.4079789              5.4174867
Ar             -0.1674094             -5.2687549             -3.3624045
Ar              1.5781433              5.2248668              1.3160443
Ar              5.0858127              2.6342373              5.4231306
Ar             -5.4565829              3.3389230             -3.5346472
Ar             -5.0790485             -2.3554766              1.2014992
Ar              5.5338654              3.0311006             -4.4483230
Ar             -3.5240474              6.4614626             -2.5666606
Ar             -2.1263235             -2.8157670             -5.9013603
Ar             -2.6806488             -5.2738775              0.9927537
Ar             -5.6138426              0.5695739             -1.0347536
Ar              2.3380490              0.2388732              6.3687622
Ar             -0.1347387              0.6188740             -6.0956256
Ar             -4.2826142             -1.1806137              5.2662511
