42
Energy:            -184.2606
Ar             -0.8164933              1.3384209             -0.4493052
Ar              0.8128393              1.8431487             -3.8512857
Ar             -1.9344119             -0.6196419             -3.3915872
Ar              1.9317102             -0.9697632             -1.9339201
Ar             -0.3161382              2.1210322              3.1733381
Ar              1.2063316             -0.7669378              1.7282617
Ar             -3.6212694              2.7949823              1.6116775
Ar              4.3150691              1.9750135             -2.1439700
Ar             -2.4895867             -0.6693409              2.5917889
Ar             -3.0025255              1.4059033              5.6110146
Ar              4.6740292             -0.5306570              0.7742019
Ar              3.1492748              1.1098640              4.2325558
Ar             -4.7706204              1.7871388             -3.6441531
Ar             -4.3439405             -0.3110148             -0.5539033
Ar             -1.1973512             -2.3536271             -0.3397684
Ar              1.7087244              4.9052290             -2.0767227
Ar              2.4442053              2.6595542              0.8626417
Ar              3.2754395             -2.8307106              3.8345355
Ar             -2.6241254             -3.3722084             -5.8454141
Ar              1.8792057              4.9545722              3.8371490
Ar              2.1272407             -4.0550402              0.1540362
Ar              0.1356841             -3.9692360             -3.2938823
Ar             -1.9917524              4.0266651             -2.5742699
Ar             -3.1972942             -3.1192104              5.2466861
Ar              0.4791472              2.6785732              6.6765306
Ar             -3.9339646             -3.6911589             -2.3350867
Ar             -0.6165392              4.9697514              0.8622323
Ar             -1.9950743              5.0267019              4.5247448
Ar             -1.3851655             -5.9681524             -0.1930727
Ar             -4.1228789             -3.7584852              1.4483918
Ar              1.4892945              1.9836475             -7.5787166
Ar             -0.3729559             -3.8795642              2.9366970
Ar              3.6314637              3.9638901             -5.2300334
Ar             -3.8581063              4.9133228             -5.7039318
Ar             -2.8046589             -6.6422692              3.4142656
Ar              3.8686328              0.0690795             -5.2484091
Ar              0.5354303             -1.3115070             -5.9836060
Ar             -0.0232613              4.9643260             -5.6485302
Ar             -2.3356860             -6.7149940             -3.8528916
Ar              4.1011814              3.8102663              6.6810856
Ar             -2.0111799              1.6891094             -6.2630916
Ar              0.0978653             -0.9483831              5.3197722
