42
Energy:            -182.0371
Ar              0.0551860             -1.8614470              0.3488245
Ar              3.3338430              0.0923782              0.0314361
Ar             -1.9392698              1.0992402              2.4412997
Ar             -3.2351847              0.1024601             -0.8687590
Ar              3.4658807             -2.0448325              3.0096560
Ar             -3.5041330             -2.2253868              2.0823140
Ar              0.1889642              1.6537264             -0.5342119
Ar              3.1782017              3.6758386              0.7128133
Ar             -2.6829754              3.8335750             -0.7902224
Ar              3.6191550             -3.4039239             -0.5454503
Ar             -1.9995777             -5.0191359              0.1949424
Ar             -1.7420363             -2.6692695             -2.8543361
Ar             -4.9881762             -3.2073925             -1.2111845
Ar              5.3686720              1.4701156              2.8304911
Ar             -1.2525261              1.0493147             -3.8641418
Ar              2.9514532              2.2136062             -2.9952382
Ar              1.6218954              1.2180916              3.0848827
Ar              1.6326104             -1.2973388             -2.9829740
Ar             -3.9927682              4.2560255              2.6793222
Ar              6.7056694              4.7867128              1.4303974
Ar             -7.3881639             -2.3019701              1.4854786
Ar              5.3304081             -0.9391760             -2.9332166
Ar             -5.4066576             -5.5052640              1.7588770
Ar             -0.2291382              4.4311721              1.9804451
Ar             -5.5959216              0.9086273              2.0037874
Ar              6.5564887             -1.4457070              0.8451844
Ar              1.3652768             -4.9871734              1.9308885
Ar             -4.7459988             -1.0880757             -4.2927877
Ar             -0.2186095             -2.0214043              3.9929357
Ar              0.8794479             -5.1504059             -2.1098460
Ar              0.7873591              5.0950509             -1.7936722
Ar             -4.7735843              2.5132536             -3.5164930
Ar              8.8994436              1.4975454              1.4662268
Ar              5.7062305             -4.9765003              2.0095582
Ar              7.0737774             -4.0770404             -1.7580682
Ar             -6.3814857              3.7126198             -0.3089243
Ar              6.2170773              2.0765061             -1.0274785
Ar             -8.6077820             -3.1707270             -2.0675000
Ar              4.7802384              5.4308292             -2.0926594
Ar              8.9099817             -0.5273646             -1.8626536
Ar             -6.9086153              0.1248472             -1.4309087
Ar              3.9318139             -4.1816261             -4.1685229
