42
Energy:            -183.8972
Ar             -1.1411015             -0.7115511              0.0948279
Ar              1.0030018              2.7969744              0.1091269
Ar              1.0807382             -5.2547617             -0.2234805
Ar              1.2255530              0.7788004              2.9599208
Ar             -1.9097355              2.4463312              2.2660420
Ar              0.4078150              0.9993154             -2.8727957
Ar              0.5149548             -2.5800513             -2.7609899
Ar              2.6937073             -0.6552794             -0.3384192
Ar             -2.0299951             -0.9929990              3.7398738
Ar             -2.6334198              2.3354437             -1.3547590
Ar              3.6085598              2.9289357             -2.4494384
Ar              3.9052893             -3.8790367             -2.5140778
Ar              1.0726890              4.5333815              3.3832388
Ar              3.0367884              2.0586970              5.8610813
Ar              4.3640274             -3.8557338              1.1959675
Ar             -2.2141026             -4.0934653              1.5010220
Ar             -2.6909605             -0.8676563             -3.5066540
Ar             -2.2069559             -4.9703076             -2.1430870
Ar              0.0504933              4.6449798             -2.8604130
Ar              1.0632914             -2.7079523              2.3516893
Ar             -4.6225759             -2.4837651             -0.8148280
Ar              1.1259948             -1.3232756              5.9583891
Ar             -4.7628883              0.5017005              1.2689853
Ar              2.3264837             -3.4874427             -6.0074393
Ar              2.4930366              6.1181454             -0.4325315
Ar             -1.2779124              5.6945464              0.4576364
Ar             -0.4931547              5.8546442             -6.2794508
Ar             -2.1049144              2.5741903             -5.1145863
Ar              3.4716958             -0.4554209             -4.1601821
Ar             -3.5148637              5.6232319             -2.7746967
Ar             -0.8307782             -4.4267160              5.0331876
Ar             -2.5509168              5.5429439              4.0872929
Ar              0.9859049             -6.1892867             -3.8253806
Ar              0.0439893             -0.5078947             -6.1632177
Ar             -1.4654651             -3.8818652             -5.6613634
Ar              4.2758158             -1.0570118              3.7086472
Ar             -4.7755851              4.4229920              0.8977990
Ar              3.0646751             -4.4880211              4.8616709
Ar             -0.8040825              2.1137966              5.7859301
Ar              3.0261775              6.1693607             -4.3796582
Ar             -5.0140314             -3.7085841             -4.3769596
Ar              1.7728689              2.8252207             -5.7644252
