42
Energy:            -181.9250
Ar              0.0492953              0.2972246             -0.6970672
Ar              2.8343352              1.8942485             -2.9371318
Ar             -0.2127009              1.7840026              2.6972693
Ar             -0.1201946             -1.9754727             -3.5521230
Ar              0.6372927             -1.6479182              2.4661851
Ar             -0.4845999              3.3463349             -2.9576596
Ar             -2.5163740              2.9667679              0.1151225
Ar              0.4332565             -3.6449592             -0.4124288
Ar              1.4167480              3.6724159              0.1274582
Ar             -2.2630236             -3.7446270              3.2319655
Ar             -3.0254740             -2.8362918             -1.3110874
Ar              1.0748321             -5.4518913              2.7372502
Ar             -1.0666097             -5.5442099             -3.2104334
Ar              1.9633934              7.1291816              1.2281793
Ar              2.1716147              6.0135109             -2.5860692
Ar              3.2665894             -1.4010321             -1.2244703
Ar             -1.0248486              5.3333265              2.7930566
Ar             -2.8924901             -0.4731574              1.5233332
Ar             -2.9056628              0.6239086             -3.0037379
Ar              2.7596540             -4.5583768             -3.1284394
Ar             -3.6303064              2.6026505              3.7535281
Ar             -2.0717010             -6.2129923              0.4110087
Ar              3.9467376             -4.6546465              0.4735390
Ar              3.2785088              0.8573288              1.7026011
Ar              2.0458549              0.4117355              5.2900021
Ar              2.4814858              4.0627171              3.7393006
Ar             -2.4104632              3.4166804             -6.1263928
Ar              3.2488051             -1.3185554             -5.0138272
Ar             -0.5477602              3.1908165              6.0430037
Ar             -1.1457253              6.6446251             -4.5564998
Ar             -3.9753448              4.5928431             -2.8996242
Ar              0.7880890             -3.2151988              5.7879972
Ar              0.9136092             -4.2134660             -6.3294633
Ar              1.3976635             -7.2172762             -0.7987001
Ar              2.1473003              8.0848358             -5.7459406
Ar             -1.7423424             -0.4511791              5.1899648
Ar             -1.1747947              6.3439001             -0.8161515
Ar              1.5763255              4.3287977             -5.8986649
Ar              0.2643961              0.8863093             -5.6856137
Ar              3.9593151             -2.5317391              3.5979764
Ar              1.5849197             -7.7358692             -4.6757108
Ar             -1.6223245             -7.0176088             -6.6268622
