42
Energy:            -189.4991
Ar             -0.9008400             -0.2410195             -0.1127330
Ar             -0.2902959              3.0436975             -1.7944476
Ar              0.4083490             -3.1638168             -1.6262491
Ar             -0.3795150             -3.2865483              1.8322595
Ar              1.6997158              2.0965319              1.0461200
Ar             -3.3623156             -1.0721373              2.6223588
Ar             -1.8778552              2.4604965              1.9391751
Ar              3.6631503              0.7580242              3.9979894
Ar             -4.3188206              0.8932286             -0.5414746
Ar             -3.2741357             -3.1475813             -0.5207243
Ar             -2.2110632             -1.0504700             -3.4117441
Ar              1.8405615              0.1187618             -2.4154768
Ar             -3.3160012              2.5612986             -3.8014383
Ar              5.4762382              0.6171380             -2.7415366
Ar              2.8001610             -1.4078744              0.8218574
Ar              2.8575146              3.1942033             -4.1277708
Ar              2.9530518              4.9422193             -0.8530523
Ar              2.4063349             -3.0023292              4.2694357
Ar              0.7799693             -2.6359846             -5.1734224
Ar              0.1886188             -0.1717936              3.3738901
Ar             -0.4078444              6.7638612             -1.7620018
Ar              0.7087020              3.2009581              4.6697332
Ar              3.9123204             -2.9437855             -2.6854483
Ar              0.2667190             -6.2897106              3.6997902
Ar              0.1492850              5.4697391              1.6685764
Ar             -0.0657395              1.1913124             -5.3922958
Ar             -3.3964962             -5.0144705              2.8465871
Ar             -2.7074195              4.9610618              4.4284119
Ar             -2.4555623              1.2089880              5.5098932
Ar             -2.0172579             -4.9245621             -3.7004419
Ar              2.5733878              6.9387753             -4.0566435
Ar             -3.3869908              4.6858777             -0.5329080
Ar              1.0997017             -0.1055742              6.8565107
Ar              3.7385487              4.5529418              2.8902541
Ar             -1.0339722             -6.3015415             -0.1724643
Ar             -0.4926303              4.8916621             -5.0243210
Ar             -1.3411474             -2.8521489              5.3973706
Ar              1.6795060             -6.1793877             -3.1299493
Ar             -5.3239949              2.2175811              3.0321861
Ar              3.4966265             -0.1969507             -5.7808217
Ar              2.5883793             -5.1733240              0.6260039
Ar              5.2941308              1.7985900              0.7395330
