42
Energy:            -190.0051
Ar             -0.9218214             -2.4031506              1.1175972
Ar              0.6473195              0.8810562              0.3235695
Ar              2.7067300             -2.1770972              0.5144983
Ar             -1.5584748             -0.8680368             -2.1619964
Ar             -1.6756439             -2.6829893              4.7673312
Ar              1.2512344             -0.6803460              3.6645524
Ar              0.5330991             -3.9704451             -1.9877919
Ar             -2.7059736              2.1985400             -0.4578333
Ar              0.0093740              2.4169004             -2.9475149
Ar              2.7296417              2.0501925             -5.3881507
Ar             -2.0888518              0.6700080              2.8905755
Ar              2.0640389             -0.6348421             -2.7728191
Ar              0.9373742              2.9904160              3.3496438
Ar              0.2135623              4.6065425             -0.0154956
Ar             -2.4374320              5.1478760             -2.8468503
Ar             -0.7776932             -6.1056354              0.8790203
Ar              4.2201255             -3.7492047             -2.6253171
Ar              1.4930335             -4.3555900              3.3358651
Ar             -3.1561646             -4.2243118             -1.3925038
Ar              4.6609888             -2.1045144              3.7415626
Ar             -4.3268850             -1.0870002              0.3421275
Ar              4.0321868              1.1012656              1.7921490
Ar              3.6627752              4.8123486              1.4707309
Ar             -2.5187479              4.3958541              2.5559413
Ar             -0.8641598              3.6727682             -6.2663865
Ar              4.9742312             -0.9620506             -5.0559507
Ar             -5.5000266              2.0402908              2.1105480
Ar              3.4563440              5.0664448              5.2265483
Ar             -5.1230389              5.0101604             -0.2044792
Ar             -3.4241483              1.7191509             -4.1783712
Ar             -5.1110015             -1.2354827              4.0194618
Ar             -6.1828060              1.5845312             -1.6101699
Ar             -3.9040528             -4.3693441              2.2653361
Ar              3.4057461              2.6665803             -1.5916941
Ar              3.7825030              1.3109163              5.4992223
Ar             -0.3965461             -0.0888935             -5.6591863
Ar             -1.9313912             -3.4156933             -4.8529463
Ar              2.9631967             -5.8847556              0.2232205
Ar              6.1013438             -3.6968916              0.6448162
Ar              5.5151164             -0.4508793             -1.2958317
Ar              1.8139024             -3.1423575             -5.4890117
Ar             -4.9990693             -1.5944501             -3.3733905
