42
Energy:            -188.0300
Ar              0.0123655              0.3622153             -1.9242472
Ar              0.9704493             -2.9382840              3.6783908
Ar             -2.0690252              3.7224145              3.2512562
Ar             -2.5709701             -4.2308965             -1.8360401
Ar             -3.3615610              0.3781438              2.1339068
Ar              0.9916491             -3.1271411             -2.5771621
Ar              0.1403494              1.3052192              1.5665253
Ar              0.9371366              0.9992079             -5.4250862
Ar             -1.7871883             -1.6663074             -4.5831058
Ar              1.5826451             -4.9439596              0.5502288
Ar              2.4556506             -1.2575361              0.3816995
Ar              0.3821150              3.8723482             -2.9447306
Ar             -2.5561688              1.9858862             -4.1966733
Ar              2.9035293              2.4223396             -0.4611134
Ar              4.6777419             -3.5914434             -1.3786584
Ar             -3.5315306             -0.5322470             -1.4806646
Ar              2.9804592              0.1352459              3.6947390
Ar             -2.6820034             -2.6022189              4.2743523
Ar              3.5265104             -0.4041677             -3.0568054
Ar              0.4230509              5.0021851              0.6363708
Ar              4.4883836             -3.5147858              2.4237576
Ar             -1.0332445             -2.1006421              0.7169670
Ar             -4.6255581             -3.0903804              1.1453674
Ar             -5.7494326              2.4294637             -2.2105471
Ar              1.7959352              3.6451149              3.8719003
Ar             -1.8310471             -5.4837306              1.9490333
Ar              5.3488113              2.6373942              2.4890107
Ar             -6.2069071             -1.0951264              3.9843053
Ar             -5.5442390              3.2960656              1.5246415
Ar              5.8455936              0.0373448             -0.1268904
Ar              6.2089828              3.8854496             -0.9938072
Ar              6.6332348             -0.7244092              3.5709238
Ar              7.8097187             -3.0352862              0.7425681
Ar              3.9223187              3.1101147             -4.0512369
Ar             -5.3930579             -0.3969313             -4.7500343
Ar              3.1699112              6.0711141             -1.9162334
Ar              3.9261747              5.8872259              1.6629629
Ar              4.0597964             -2.5430843              6.0088335
Ar             -6.7504348             -0.1248525              0.3419242
Ar             -6.2145306             -3.0232616             -2.2168671
Ar             -0.6073125              0.4513589              4.9924224
Ar             -2.4224976              2.9120436             -0.5402656
