42
Energy:            -190.0046
Ar              1.5382829              0.0124950              0.4178554
Ar             -1.7168416             -0.7616625             -1.5573498
Ar              2.9720285             -2.8737677              1.9176052
Ar              1.0540089             -3.1887938             -1.4615450
Ar             -0.3310596              2.7662417             -0.9471731
Ar              1.3232819              0.2974004             -3.1775871
Ar             -1.8856792              0.8640079              1.7090844
Ar              0.9131266              2.9516420              2.4522637
Ar              3.4228477              3.1047271             -0.2834905
Ar             -0.7524337             -2.4913184              1.6406130
Ar              4.0024333              1.0268381              3.1421868
Ar              4.1931042             -2.2109021             -3.1051734
Ar             -2.4371960              4.5073408              1.7391049
Ar             -2.9357302             -1.3282625              4.4755759
Ar              2.0192217              2.8670850              5.9203086
Ar              3.7085776             -5.5647566             -0.6012470
Ar              0.6868455             -0.2765086              4.1967157
Ar              1.6312188             -2.1329182             -5.9155548
Ar             -3.0715603             -4.9160313              3.0137952
Ar             -4.5206169             -2.4735619             -3.1300563
Ar             -1.7993396              2.5201644              5.0019981
Ar              1.0085602              1.6560261             -6.5568467
Ar             -1.8332756              2.7577780             -4.2226198
Ar             -4.0293037              2.1731032             -0.9948239
Ar             -2.4745598             -4.5865377             -0.7586201
Ar             -1.7883255             -0.7322868             -5.2952733
Ar             -2.2626291              5.7220849             -1.8573230
Ar             -1.1428697             -4.1938060             -4.2283635
Ar              2.5656329             -5.3503519             -4.2737390
Ar              0.2549082             -3.9195272              4.8580575
Ar              4.7452391              1.5612682             -3.4638246
Ar              0.9458390              5.9968002              0.3850713
Ar              0.2145572             -6.9297680             -1.9241032
Ar              3.6474642             -2.1275711              5.4770531
Ar              1.7828950              4.0624255             -3.6207891
Ar             -5.1495206              1.7385637              2.8965881
Ar              3.8070319              5.0138960              3.0786367
Ar              0.1110832              5.9500496              4.2996082
Ar             -4.4016624             -1.7131638              0.8791986
Ar              3.4494507             -5.8311376              4.0547499
Ar              5.1642334             -0.3331620             -0.1074820
Ar              0.5554456             -5.8548791              1.5819123
