42
Energy:            -184.4349
Ar              0.1828350             -0.9805239              1.5240122
Ar             -2.5600050             -2.6117342              3.3565630
Ar              2.1126975              1.8835580              2.8617297
Ar              1.7449861             -2.2427310             -1.6800337
Ar              1.7845613              1.3582946             -0.8873021
Ar             -1.1706798              0.0015648             -2.4533646
Ar              2.3637823             -4.1756621              1.5416669
Ar             -1.1059558             -4.0124402             -0.0006782
Ar             -3.6171377              1.1192357              3.4508581
Ar              3.8120588             -0.8494965              1.0319805
Ar             -6.1950335             -1.5459607              2.6198491
Ar              4.9703457              2.5779037              0.3868084
Ar             -4.4268912              0.1450383             -4.2587005
Ar              4.8418213              0.0499844             -2.3820681
Ar              5.2989581             -3.4819831             -1.0312579
Ar             -0.4449728              0.2355215              5.0211725
Ar              1.8659650              0.5694327             -4.5306102
Ar             -3.7221653              2.8060786             -1.7361081
Ar              5.9351291             -3.1542994              2.8626194
Ar             -0.1052137             -2.6833618             -4.8562870
Ar             -3.3592000             -0.7279994              0.2611122
Ar              8.2695832              2.9301318              1.9325673
Ar             -4.7802512             -4.2372195              0.4883666
Ar              3.7425403              3.6542758             -2.9848101
Ar             -1.2082003              2.3159031              0.8057982
Ar             -4.0759160              4.4805018              1.9135441
Ar             -5.4196974             -4.9335585              4.1560105
Ar              7.3944988             -0.4975167              0.4815053
Ar             -7.3040149              2.0762123             -2.7946609
Ar              1.8434507              4.7524448              0.4998777
Ar             -0.1589877              3.5722540             -3.0046577
Ar              4.7057081              4.5167259              3.4859004
Ar             -3.3256594             -3.0677586             -2.7942552
Ar             -1.6110953              5.8562601             -0.4626187
Ar              3.9269267             -2.7436370             -4.6360591
Ar             -6.2405006              1.6691986              0.7741747
Ar              7.9915933             -1.6723298             -3.0882872
Ar              5.6781722              0.7690679              3.7240118
Ar             -6.5383468             -1.4163670             -1.4225068
Ar              7.7924481              2.2851701             -2.0298947
Ar              2.7062570             -1.6513685              4.4106371
Ar             -0.8321043              3.9701610              4.0118877
