42
Energy:            -189.6697
Ar             -0.6926400              1.5429738              0.4778023
Ar             -4.0469874              3.1578593              0.1371181
Ar              2.1829516              3.4094951              2.0938204
Ar              2.3891429             -2.6324276             -0.2693274
Ar             -1.0638830             -2.1272218              0.9600098
Ar              1.0889497              4.3518897             -1.3145814
Ar             -3.5803449             -0.2779607             -1.1318650
Ar              2.7711081              1.0161972             -0.7292628
Ar              1.4024769             -4.0811006              3.0970941
Ar              0.0466822             -5.5677887             -0.0652082
Ar             -2.3219223              5.9488896             -1.6828775
Ar             -1.1532713              4.9946559              1.8016126
Ar              1.7573860             -0.3386432              2.5598750
Ar             -0.6612817              1.9496807              4.1181978
Ar             -4.6673277             -3.1535652              0.9412463
Ar             -0.0467804             -0.7618478             -2.3474852
Ar             -2.4562416             -3.6635172             -2.1856934
Ar             -1.0157212             -1.7342129              4.6684721
Ar              2.9751655              1.8765485              5.3516416
Ar             -3.5410513              0.1818120              2.5253138
Ar             -3.9643886              3.6580124              3.9152840
Ar              4.7531560             -4.5033048             -2.5208133
Ar             -1.7403111              2.4787789             -2.9257761
Ar              4.8839958              4.0071581             -0.4670845
Ar              1.0608362             -4.1497642             -3.4130023
Ar              3.5107319             -1.1805132             -3.6069821
Ar             -2.9415594             -0.7674076             -4.7237925
Ar              1.7307602              2.0124936             -4.2130002
Ar             -2.1926106             -5.0272527              3.0349500
Ar              3.8098307             -5.8663390              0.8609409
Ar              0.1480266              0.5292533              7.4608502
Ar              5.1611250              1.1657857              2.2139532
Ar              0.8268650              5.1420483              5.1550405
Ar             -3.4779678              0.6625839              6.2621825
Ar              0.6107357             -1.3157750             -5.9627140
Ar              5.8266117             -1.2290147             -0.6687922
Ar             -5.3655661              2.0800622             -3.4193171
Ar              2.6504149             -1.8447362              5.8333112
Ar             -1.2037531              1.9858357             -6.5901871
Ar              3.5536437             -3.8668413             -6.1921357
Ar              4.7770036             -2.5733439              2.6808149
Ar             -4.6468602             -2.6520232              4.7124503
