42
Energy:            -186.2647
Ar              0.3957881             -0.9010382              0.0362103
Ar             -0.6328296              0.0543423              3.4472994
Ar             -0.3791155              1.7451813             -2.6658935
Ar             -2.5731831             -2.4790381              1.3540327
Ar              3.0813452              0.2076983              2.2467654
Ar             -2.5736748              1.1041157              0.3006407
Ar             -2.2436168             -1.4309825             -2.2489834
Ar              3.5102887             -2.6093607             -0.1055017
Ar              1.3159735             -1.5623507             -3.5285009
Ar              3.0368841              0.9732559             -1.3894204
Ar             -4.1316920              1.6480139             -3.0490722
Ar              0.8375723             -3.4112895              2.6006242
Ar              3.8759460              5.9368244              3.9257269
Ar              5.6358612              3.1493760             -2.6267171
Ar             -1.9621098              4.6087616             -0.7628889
Ar             -4.6819874              0.1052474              3.0857787
Ar              0.8757851              6.0690282              1.6031774
Ar              2.4584034             -6.1849997              0.5675309
Ar             -5.6396749              2.9540037              0.4453992
Ar              2.6337405             -1.5107852              5.3827030
Ar              1.9878528              4.5605173             -1.9988178
Ar              3.1910808             -4.7858418             -3.0609141
Ar             -5.0673145             -1.9986730             -4.3976191
Ar              6.2537256              0.4728369              0.2227455
Ar             -5.9421221             -3.8537188              1.7725876
Ar             -1.7043222             -6.0918146              1.5025249
Ar             -3.9309315             -4.5678321             -1.4723145
Ar             -2.1848581              3.5863638              2.9957269
Ar              0.6615230              2.5771493              0.8472764
Ar             -5.2032490              5.2226050             -2.5712220
Ar             -1.5343143             -3.9820574             -4.7375948
Ar              6.2786821             -1.1177396              3.6411039
Ar             -5.5346677             -0.9491055             -0.6084186
Ar              1.5232992              3.0215004              4.3435438
Ar              7.0630238             -3.2101655              0.4951918
Ar             -0.0849318             -4.2516167             -1.2512259
Ar              5.2178260             -1.3501730             -3.1653530
Ar              5.2503213              2.3963878              4.3387372
Ar             -1.6565785             -0.1824193             -5.6297877
Ar              4.4033456             -4.2332942              3.1572392
Ar              2.6622264              1.7598966             -4.9182578
Ar              4.1796786              3.6474903              0.9626826
