42
Energy:            -183.6066
Ar             -1.1066784             -0.4701797              0.1714638
Ar             -0.6320212             -1.4454915              3.6382170
Ar              1.2116811              1.4310117              2.5306973
Ar             -1.9250876             -0.5190317             -3.3372457
Ar             -4.1175491             -1.5501275              2.4382945
Ar              0.1549210              2.2925734             -2.1067231
Ar              2.0796367             -1.9306540              1.0809452
Ar              1.8107247             -0.8601487             -2.4440592
Ar             -2.4163497              1.7416306              2.9479019
Ar              3.4769627              1.6362414             -0.2330421
Ar             -3.3236607              2.3186628             -0.8283718
Ar              0.4165948             -2.7559543             -5.4986151
Ar             -0.8650517              3.0165102             -8.1316677
Ar              0.0687305             -2.5275501              7.0764586
Ar             -3.9695928             -2.6502377             -1.1199038
Ar              3.0588047              2.9586843             -7.4793906
Ar             -1.5388749             -4.1742144              1.4057207
Ar              1.1694933             -4.5985705              3.9956754
Ar              2.3239685              5.1930914             -1.6258456
Ar             -0.4654881              4.2483265              0.8769162
Ar             -3.1664599             -3.6919539             -4.7574884
Ar             -2.6842726             -4.1824299              4.9945611
Ar             -2.5960368              2.7963398             -4.7285811
Ar              3.1329837             -4.2118842             -3.1047221
Ar              0.6514297              0.9107818             -5.5336763
Ar             -3.2740408             -0.5169768              6.0265805
Ar             -0.4547096             -3.7019492             -2.0141593
Ar              0.1252664              4.4633956              4.5100539
Ar             -2.4545023             -0.4673744             -7.0032197
Ar              2.8913149             -1.1950733              4.7211296
Ar             -3.0168297              3.2957308              6.2808072
Ar              3.5784088              2.2969051             -3.8147673
Ar              1.8914040             -5.5335708              0.3350606
Ar              3.0802616              4.6502482              2.0543639
Ar             -3.3286708              5.3441806              3.0072354
Ar              0.6997768              4.6078252             -5.0248185
Ar             -1.7024357              5.5683751             -2.3215767
Ar              3.8363217             -1.0686940             -5.5717504
Ar              4.6524275             -4.0394160              2.6939125
Ar              3.4663026              2.5877495              5.2314469
Ar              4.2429710              5.7761275             -4.9757633
Ar              0.1092363              1.1363174              6.1467967
