42
Energy:            -174.2725
Ar             -0.3296778              1.6943074             -0.5550443
Ar              2.3529774              0.7792009              1.9614486
Ar             -1.7357420              0.5072769             -3.8343269
Ar             -1.0140893             -0.5286660              2.3937568
Ar              3.4678327              2.4473520             -1.0777169
Ar             -4.0568424              2.4827563             -1.8739900
Ar              1.7997084             -0.0135056             -3.2811094
Ar             -2.7724364              1.1998017              5.2673312
Ar              0.8081670              0.4719418              5.3194009
Ar             -5.2220945             -0.8374478             -3.4514383
Ar              4.4021910             -0.3154080              5.0186428
Ar              5.2671360              1.1751916             -4.1215346
Ar             -3.3492194             -1.0860098             -6.8133580
Ar             -3.5889819              1.9955362              1.7115553
Ar              5.7515140              2.0999458              2.3733187
Ar              3.9500111             -1.8968228             -5.8226478
Ar             -2.8609528             -1.0722608             -0.6221665
Ar              0.2678943             -1.4575423             -6.3342158
Ar             -4.5762697             -1.5408363              7.0347145
Ar              0.6015104              3.4377442             -3.8152259
Ar             -1.4086111             -2.6066383              5.3784324
Ar              1.9709137             -2.4647734              7.2135452
Ar             -1.7687774             -4.5490069             -7.0453116
Ar             -7.0611036             -0.6530478             -6.6981722
Ar              2.4957471              1.5856011             -6.5915544
Ar              4.5332113             -2.0910589             -2.0682543
Ar             -1.0510665             -0.3420682              8.3940074
Ar             -1.1672991              2.0615944             -7.1109391
Ar              5.0231027             -1.7077399              1.5834253
Ar             -0.2844242              3.1890078              2.9864807
Ar              6.8477795              0.5768479             -0.8148807
Ar              1.8651787             -2.6710978              3.4152841
Ar             -4.6553297              2.2155695             -5.5945799
Ar             -4.4917785             -1.4587420              3.1022913
Ar              2.8553247              1.1647965              8.2494759
Ar              1.0557993             -1.9677197             -0.2916892
Ar             -6.3576393              0.0606969              0.0592917
Ar              3.1248319              3.2727112              4.8162383
Ar             -2.1424790             -3.1088041             -3.6416685
Ar              5.4663208             -1.5981589              8.3975968
Ar             -5.3184669             -3.9850208             -5.5453670
Ar              1.5036337             -3.7724347             -3.6179574
