42
Energy:            -184.2855
Ar              1.2768709              0.8582536              0.0065635
Ar             -0.9102955             -1.0418164             -2.2088988
Ar              1.0574506             -1.0485531              3.1685906
Ar             -0.7566250              2.0139187              2.8150789
Ar              0.7418716              1.9144895             -3.5203254
Ar             -1.8898101             -0.9057713              1.1421890
Ar             -1.9911799              2.3797661             -0.8063279
Ar              2.7247609             -1.2240408             -2.6291334
Ar              3.0466124              2.0656444              3.0059763
Ar             -2.4559072             -0.7570759              4.7682760
Ar              1.0185874              4.5065340              0.9016904
Ar              3.8226563             -4.6081003             -1.6908513
Ar             -4.9587993             -2.4527903              2.1773468
Ar             -2.6885690             -3.9754228             -0.7249367
Ar             -3.1410836             -2.8342945             -4.4455091
Ar              0.7462294              4.6659216              4.7856180
Ar              2.7962761             -4.2198326              3.3351758
Ar              0.9615267             -3.1308481              0.1802764
Ar              0.2752979             -4.3426845             -3.2366753
Ar             -2.7706369              1.1463862             -4.3752032
Ar             -1.3631600              4.6816726             -4.6965534
Ar             -4.3991361              1.5497078              2.1703500
Ar              1.7910107              5.3599192             -2.5676417
Ar              3.7770874              2.9111377              6.5573305
Ar              4.1252746             -1.2858748              1.0395757
Ar             -2.8298621              3.0067981              5.6062638
Ar             -1.6757564              6.0853305             -1.2396201
Ar              3.3753087              0.5744205             -5.8128903
Ar             -1.2935159             -4.0023124              3.0680738
Ar              3.1002498             -3.4839820             -5.5583956
Ar             -2.6267472              5.0396322              2.2454955
Ar              0.1155802             -1.2347908             -5.6363109
Ar              3.9079664             -0.8347146              5.3825107
Ar             -4.5222626             -0.5560118             -1.3907992
Ar              4.0732274              2.2851925             -1.9871853
Ar             -0.5693499             -4.6674596             -6.8462437
Ar             -0.3592629              2.0435992             -7.2020980
Ar             -3.9965128              3.2614992             -7.1426268
Ar              2.4151487              4.2166286             -6.0120907
Ar             -6.0700915             -0.4264893             -4.9099906
Ar              0.5592216              1.0734942              6.1574475
Ar              0.5397505             -2.8023922              6.2975817
