42
Energy:            -183.0416
Ar             -1.6732251              0.5709372              0.2699031
Ar              0.9749174             -1.3677601              2.3502258
Ar              1.1743158              2.2245135              2.1151949
Ar              1.0407096              2.3417026             -1.5612104
Ar              0.4880548             -1.9428651             -1.2392730
Ar              2.3692195             -0.2584049             -3.8805172
Ar             -1.3778098              0.4865328             -3.4512551
Ar             -1.5217829              3.3453717              4.3342453
Ar              3.9703968              0.3716689              3.7991717
Ar              2.8769508             -3.9014253             -5.1008211
Ar             -2.5590805             -0.2210957              3.6993032
Ar             -1.4695584              4.3227513              0.6590056
Ar             -0.6059998             -2.8163136             -4.6764219
Ar              4.5903864              3.3595681             -1.6719836
Ar             -4.6326924             -3.3343617              4.0213038
Ar             -0.0956583             -6.4588141             -5.1561198
Ar             -3.6542086             -4.9810655             -4.5622475
Ar             -2.0425156             -3.1726276              1.3160590
Ar              4.0503028              2.7943223             -5.2973618
Ar              1.3715864             -4.8026591              1.0583579
Ar              4.7063728              3.5051282              2.0540166
Ar              3.7163455              0.5454420              7.5068942
Ar              4.4322502             -2.9030459              2.0728382
Ar             -4.5513907              1.4692873             -1.9135763
Ar              1.8427110              5.3853164             -3.4992802
Ar              0.3516943              2.7033365             -5.7135125
Ar             -5.1195211             -1.0012300              1.0179679
Ar              2.0522014              5.4506955              0.2909948
Ar             -0.8790162             -3.3566887              4.8876319
Ar              0.5450303              0.3778961              5.5551269
Ar             -4.0064030             -1.2724004             -5.4954766
Ar              3.5112526              0.1829738              0.0430285
Ar              2.3321291             -6.3443394             -2.2561362
Ar             -3.3191684             -2.2038759             -1.9768520
Ar              2.4967830              3.5761198              5.2774611
Ar              3.9743369             -3.0693684             -1.6341264
Ar             -1.8045797              4.2176560             -2.9872395
Ar             -4.8284652              5.0704940             -0.9004973
Ar              2.7560694             -2.7119057              5.4722112
Ar             -4.4507463              2.5384534              1.9117373
Ar             -1.1832726             -5.2473859             -1.7234093
Ar             -3.6711907              2.4615577             -5.6402077
