42
Energy:            -183.0372
Ar              1.6457497              1.0298973             -0.4737782
Ar             -1.5733396              3.1792906             -0.3602313
Ar              1.8948046             -2.5483790              0.8121480
Ar              1.1484714              1.5762431             -3.9882346
Ar             -1.1467141             -0.5091465              1.4308953
Ar             -1.6092347             -0.0122838             -2.0850822
Ar              1.2223736              3.7911239              1.9876066
Ar              1.4552973             -1.9181139             -2.8252098
Ar              2.0435599              0.3618614              3.0679746
Ar              4.9413936             -0.2357113              0.8435721
Ar              4.7267295              3.1821901             -0.5650140
Ar             -1.9986834              2.4332173              3.3472032
Ar             -4.3703734              2.4852594             -2.8832936
Ar             -1.8724368             -2.8713520             -4.4550085
Ar             -4.0214147             -0.9059175              3.7883516
Ar             -4.4092204             -2.6894661              0.5852752
Ar             -1.3482536             -3.7439126              3.0342773
Ar              2.1196024             -3.0927293              4.5081145
Ar             -2.3244913              0.7853414             -5.5814945
Ar              0.9852234              2.7866504              5.6488263
Ar             -4.4243669              0.9937043              0.5263052
Ar              0.4602188              2.6748463             -7.3916186
Ar             -4.9502821             -1.2454765             -2.8570224
Ar              4.8289546             -3.1315674             -1.5329383
Ar              0.7728009             -1.1698783             -6.4828182
Ar              4.6750188              2.9262425              3.1802104
Ar             -3.3660642              1.3859465              6.7085522
Ar              4.4789420              0.3165117             -2.9084138
Ar              1.9111775             -5.4603805             -1.6587373
Ar             -0.6286825             -0.6432896              5.2374595
Ar             -5.7162978              2.4420956              3.8081007
Ar              4.0851314              3.8727616             -4.2624119
Ar             -1.2218424             -3.5842041             -0.8395216
Ar              5.1117544             -3.7390876              2.2378435
Ar              3.8336066              0.9456118             -6.5915925
Ar             -1.3321523              4.2270449             -4.1388611
Ar             -2.9197919             -3.1901861              6.5836636
Ar             -4.9775790             -4.5992774              3.7557750
Ar              5.2031698             -0.7222986              4.5935860
Ar              4.1163171             -2.6296180             -5.2781167
Ar              1.5252489              4.6695440             -1.6803986
Ar              3.7793772              6.3276869              1.1430697
