42
Energy:            -181.7337
Ar             -0.0145293              0.7434601             -0.2935453
Ar             -2.5116006              0.1937028             -3.2296564
Ar              0.6738002              1.2186856              3.2992901
Ar              2.9666877             -1.5094398             -0.1305396
Ar             -2.6217368             -0.3961464              3.3496648
Ar              3.3906525              1.9790669              0.8452613
Ar             -2.8418078             -1.7490305             -0.1211581
Ar             -5.8711680             -0.7294860             -1.9420135
Ar              0.0336953             -2.3940219             -2.1948177
Ar              1.2118950              0.6602177             -3.8326539
Ar              0.2976276              4.2009968              0.9677010
Ar              4.6651307              0.8512794             -2.4786756
Ar             -1.2970274              3.5126256             -2.4699763
Ar              5.5804926             -4.1072543             -0.3526533
Ar              0.1271352             -2.4509782              1.8599860
Ar              6.8557076              3.1780387              1.3732280
Ar             -5.4698154             -4.3443531             -0.4752375
Ar             -5.0784571              3.0483289             -2.5997456
Ar             -3.5206802              1.7664527              0.4350516
Ar             -1.7794020             -5.2664384             -0.5585466
Ar             -5.6779180              1.6213528              3.9276719
Ar              2.3267475              3.8123983             -2.1730924
Ar              3.8922471             -0.6771121              3.4155358
Ar              6.4021392             -0.4667984              0.5914364
Ar              1.9589970             -5.1218230             -0.6677077
Ar             -5.9350358             -1.3658807              1.7865537
Ar              3.3051072             -4.2544787              2.6698791
Ar              5.9704825              4.3952774             -2.0576359
Ar              3.4926787             -2.8010649             -3.5090024
Ar             -2.4271955              3.5235050              3.4537946
Ar              3.8507028              5.6507197              0.8280309
Ar             -3.3445855             -3.4508439             -3.4727136
Ar             -3.2294778             -4.0765608              2.7224363
Ar             -0.0006737             -5.6132489             -3.9278083
Ar              0.0379523             -6.1276993              2.5707491
Ar             -3.1005645              5.4844550              0.0233204
Ar             -7.2369724              1.9024632              0.3913187
Ar             -5.9184805              4.8866230              2.2614546
Ar              6.8421262             -3.1358326              3.1411038
Ar             -6.9238621             -4.7946888              3.0040625
Ar              7.1576161             -1.8784066             -2.8856986
Ar              8.3894295              1.5599109             -1.8087865
