42
Energy:            -188.8255
Ar             -0.8511642              0.0129518              0.4159126
Ar             -0.1951365              1.1341182              3.9687051
Ar              1.6273770             -4.2932814             -0.2258106
Ar              1.5378669              1.7511757             -2.1870378
Ar             -1.4744923             -3.4598671              1.6005315
Ar             -1.2055678              3.6081150             -0.5766246
Ar              1.7047919             -1.5981021              2.3606252
Ar             -2.7034856             -2.5554188             -1.7843883
Ar              2.1790409              1.9147124              1.2853876
Ar             -3.3443917             -0.6087832              3.2432265
Ar             -1.8414097              0.8411686             -2.9633210
Ar             -0.2136844             -5.0200964             -3.5883244
Ar             -3.0167967              3.0448372              2.4897984
Ar              3.0087224              2.8009593              4.8384405
Ar              2.7457382             -0.8101084              5.7671309
Ar              0.7783728             -1.6729288             -2.6622014
Ar              3.8455578             -3.7845067             -3.1547473
Ar             -3.9216431             -4.1956148              4.3081505
Ar             -0.6148327             -2.4397948              5.1213948
Ar             -0.5394056              4.1389110             -4.2137559
Ar              0.4479017              4.7879088              2.6401563
Ar              5.0130161              2.4913747             -1.2304455
Ar              5.0313074              0.2028293              2.7957485
Ar              4.0011212             -0.1085412             -4.2254263
Ar             -5.1605118             -0.3714719             -3.8241293
Ar             -4.2737256              3.5215457             -2.9442512
Ar             -5.2130667             -2.8241021              0.9349958
Ar              3.7446337             -0.9719964             -0.6005892
Ar              3.3277083              3.7385416             -4.6063440
Ar             -3.3701990              2.0107020              6.0098410
Ar             -1.8969760             -1.9192101             -5.4105460
Ar              4.7452865             -3.6143617              1.9088936
Ar              0.6950559              0.8851859             -5.7053708
Ar              2.1976362              5.1230806             -0.9449382
Ar             -3.6778862             -1.5440811              7.0027336
Ar             -0.3471147              0.4156754              7.6039742
Ar             -2.9975902              1.8101758             -6.2655680
Ar             -4.3841478              0.7399424             -0.2343942
Ar              4.5916929              4.5940839              1.9508036
Ar              1.4861415             -5.1108838              3.4785913
Ar              1.7513736             -2.7184056             -6.0901403
Ar             -0.2465657              4.0550947              6.2864991
