42
Energy:            -181.4571
Ar              0.0209713              0.8770805             -0.6432089
Ar             -2.0316769              3.2967910              1.3854546
Ar              1.8498679              3.1437551              1.4655026
Ar              2.5877027             -0.5685600              1.6880547
Ar             -2.3396142             -4.0654142             -0.7533821
Ar             -3.1759677              2.3259094             -1.9410973
Ar             -2.9186938             -0.6316649              0.8338478
Ar              1.0426272             -2.5758998             -1.0990654
Ar              3.5065484              0.5796242             -1.5513109
Ar             -0.2679535             -2.9841241              2.2506236
Ar              0.2482531              4.2931640             -1.8280767
Ar              4.1219499              4.2618114             -1.2293075
Ar             -2.0189574             -1.0560844             -2.8596542
Ar             -0.3798061              0.6392493              3.2719839
Ar              1.7942633             -1.8843708              5.1289159
Ar              2.9879111              1.6781402              4.6786256
Ar              1.3941919             -0.7264429             -4.2463751
Ar             -0.0766140              4.1267925              4.5258757
Ar             -0.9320516              2.0755537             -4.7877547
Ar              2.7229573              2.8154030             -4.3894999
Ar             -3.9792169              1.1285350              3.9562613
Ar             -0.4231497             -4.1257660             -4.1776846
Ar             -2.1042540             -1.8664475              5.3604435
Ar              4.3372360             -3.0391815             -2.5226636
Ar              5.0840318             -0.1864974             -4.8477790
Ar             -5.5876457             -0.6457495             -1.6906449
Ar             -3.8901633             -3.7964898              2.6863854
Ar              5.3487202              1.9541480              1.5724712
Ar              6.1061903             -1.4258011              0.2762661
Ar             -4.4731812             -3.5513367             -3.8990923
Ar             -4.4875437              0.5359436             -5.0856984
Ar             -5.6293724              2.2546378              0.7758990
Ar              3.5136246             -4.0536800              1.3707553
Ar              5.3646077             -1.3084095              3.9513118
Ar             -7.6955536              1.8573031              3.9181116
Ar              6.9550398              1.6745989             -1.9392809
Ar             -6.7827575              2.7130068             -2.8608332
Ar             -6.0529388             -4.0936820             -0.4072780
Ar             -6.4411157             -1.1698520              2.0101119
Ar              6.7338794              2.0429299              5.0694455
Ar              0.0916298              6.4061030              1.3567814
Ar              3.0194313             -3.5405975             -5.9878334
