42
Energy:            -187.0886
Ar             -0.5750212             -0.4223370              1.6096383
Ar             -0.6576198              3.1715692              1.0510659
Ar              2.0349916             -2.1990479             -0.6184511
Ar             -0.2251358             -3.9537584              1.7654440
Ar              2.5032943              1.3000299              0.7826216
Ar             -2.0627323             -2.2490569             -1.2149975
Ar              0.4645359              1.6981320              4.4372066
Ar              2.9667734             -0.1766443             -3.7136734
Ar              2.2568734             -1.4333465              3.6363250
Ar             -0.0322468              0.7159863             -1.7715252
Ar              4.6438385              4.3055855              0.6129156
Ar             -1.1343532              4.0946575             -2.4811057
Ar             -3.8185679             -2.1856723              2.0213663
Ar             -4.8031680              3.8538884             -2.0346567
Ar              4.3417142              1.8154349              3.8580841
Ar              3.3928201             -4.6031036              2.1944050
Ar             -3.1250155             -5.5540471              0.1309491
Ar              5.1688782             -1.2574956              1.4050315
Ar             -3.3923519              1.0774829             -0.0953837
Ar              5.4873943             -2.4673161             -2.1374902
Ar              0.9453611             -7.3148282              0.8481785
Ar              1.3015391              6.0635902             -0.3040860
Ar              1.9671457              4.7862617              3.1527269
Ar             -3.1546169              1.2236702              3.6709035
Ar             -2.4272560              6.3395285              0.2604104
Ar             -2.8965165             -5.2892329              3.9642736
Ar              5.5447462              1.2279959             -1.3809132
Ar              0.0708088             -5.0719018             -2.0350843
Ar             -4.7930307              3.9587269              1.7774708
Ar             -6.4730659              0.5197009              1.8728705
Ar             -3.2024825              0.5731567             -3.7050161
Ar             -5.7001141             -1.5361151             -1.3169012
Ar              2.5392801              3.2984339             -2.4445298
Ar              3.6977443             -5.6982955             -1.2825613
Ar              6.8110808             -4.6062552              0.6483385
Ar             -3.2352979              7.0406408             -3.3948757
Ar              0.1112827              1.8784391             -5.2622109
Ar             -0.3397405             -1.8701287             -4.4331314
Ar             -1.2960831             -1.9031534              4.8889523
Ar             -3.2167835              3.8495741             -5.5521170
Ar             -1.8329439              4.8506937              4.0490129
Ar              2.7902964             -3.8503234             -4.3576426
