42
Energy:            -188.2487
Ar             -0.0867371              1.3474062              0.2153175
Ar             -2.7207955              2.8177686              2.2778787
Ar              3.2912214              1.8137578              1.2165488
Ar             -0.6827538             -2.3797131             -0.2893542
Ar              2.5811623             -0.8967961             -1.2014451
Ar              1.5400427              4.6130325             -0.8719555
Ar             -2.1094339             -0.7753545              2.5149705
Ar              1.6311933             -5.1419807              0.1144816
Ar             -1.7359864              3.2256004             -2.5072537
Ar              1.5650175             -1.2178734              2.4179451
Ar              2.2322382              2.1031223             -3.3805101
Ar             -3.7378861              0.7900426              5.3953500
Ar             -0.3993665              1.8124257             -6.0988108
Ar              2.2493088             -1.1920135             -5.2485546
Ar             -0.0136555              1.3175525              4.6623537
Ar             -4.4049360             -2.9074898              4.4045181
Ar             -3.2082813             -2.8570804             -3.0478564
Ar             -3.7803943              0.6594376             -4.5791529
Ar             -0.7959313             -2.2735557              5.5892123
Ar             -0.5401386             -0.2372859             -3.0962446
Ar              3.5495649              2.6877450              4.7497856
Ar              0.7255560              4.2699414              2.6775627
Ar             -4.2523406             -3.1927152              0.6080049
Ar              4.5265760             -3.2046800              1.1229604
Ar              0.4957794             -3.8993861             -3.3867184
Ar              4.2218872             -3.7544807             -2.6756424
Ar              6.1991105             -0.1420855             -0.1001813
Ar              6.7416379              2.7479741              2.2661650
Ar             -3.4315299              0.1941902             -0.8356043
Ar             -5.6700242              0.0544540              2.1399113
Ar             -5.4229425              3.2343257             -0.2267091
Ar              5.2544555              3.3065523             -1.4555252
Ar             -6.1031451              3.4265470              3.6889102
Ar              5.2099118             -0.4704382              3.4958054
Ar             -1.9355236             -5.7877008             -0.9803765
Ar              4.1804961              5.3953304              1.7333433
Ar              5.5081497             -2.8690612             -6.1117182
Ar              2.6358700             -0.9491209              6.0571059
Ar              5.3515948              0.0251116             -3.6486439
Ar              2.2600588             -4.3723529              4.0516195
Ar             -1.3587352             -1.9538377             -6.2404838
Ar             -1.2628762             -4.4910078              2.6275802
