42
Energy:            -183.4363
Ar             -0.0370607              0.1472464              0.6279530
Ar              1.3647557             -3.1795579             -0.8777677
Ar             -0.7012472              2.8647447             -1.8012763
Ar             -0.0289564             -3.0151948              2.4686278
Ar             -1.5013665              3.3874789              1.7945303
Ar             -0.8313842              0.5881830              4.2159070
Ar              0.7863556             -0.2751231             -3.0855973
Ar              1.2587714              3.7799081              4.3409212
Ar             -3.0065310             -4.8702906              0.8740649
Ar              2.3898359             -3.3587543             -4.4686760
Ar             -2.2591499              3.8930438              5.5179600
Ar              2.8481922              2.8278218             -3.0299702
Ar             -3.6472562              1.1528559             -0.3165526
Ar              3.4959347             -0.0241311             -0.5128641
Ar              0.4847988             -6.3740425              0.8823875
Ar              4.9416749             -3.3890826             -1.6200906
Ar             -4.1811088              3.8916923             -2.8618771
Ar             -1.4931134             -6.0636523              4.1143492
Ar              1.5280330              6.0820808             -1.7354421
Ar              1.7332109             -2.0143276              5.5333998
Ar             -2.0747919              6.1707959             -0.7172758
Ar             -2.0905539             -2.0648049             -1.3751839
Ar             -2.0502344             -2.6584570              5.6167474
Ar             -1.1859448             -5.5313637             -2.3546182
Ar             -2.7700795              0.5662215             -3.9554032
Ar              2.7620410              0.6381888              3.1261857
Ar             -3.2778460             -1.4493682              2.2484022
Ar              3.6624295             -2.7408545              2.0441923
Ar              2.0396283              3.2438304              0.6243779
Ar             -1.0490478              5.4024765             -4.4313639
Ar              2.4764063             -6.4406649             -2.4027002
Ar              4.5531490             -0.3844217             -4.0500706
Ar             -1.2830861             -2.8230891             -4.9538517
Ar              2.2503051             -5.5214776              4.1225093
Ar             -4.4881054              1.8115945              3.3911040
Ar              0.3781109             -6.2691066             -5.6616644
Ar              0.6360584              6.5244659              1.8876109
Ar              4.2216292             -6.1918691              0.8840419
Ar             -2.9553286              6.6168989              3.0051132
Ar             -5.6755030             -2.1345342             -0.5322140
Ar              4.2252071              5.4323760              2.6472974
Ar             -5.0534202              4.4377382              0.7772938
