42
Energy:            -178.8797
Ar             -0.9569160              0.6167892              0.3138189
Ar              1.4203527             -1.8700376              1.6574526
Ar             -0.1038072              4.0868685              1.7018307
Ar             -0.9755340             -2.6737001             -1.3060541
Ar              1.0349553              3.0060496             -1.6038135
Ar             -3.3431061             -0.9414554              2.8302176
Ar             -1.6672393              0.8232998             -3.1992638
Ar             -0.1882071              1.0256527              3.7028924
Ar             -1.4670885             -3.9424836              2.2298778
Ar             -1.1925405              4.2540362              5.2452657
Ar              1.9715407             -0.5161864             -1.8458962
Ar              2.1807272             -4.0684272             -2.8017780
Ar              2.6067870              5.3802442             -3.9171066
Ar             -2.0433261             -6.2473425             -0.6470194
Ar              0.0133264              6.5159240             -1.2369003
Ar              1.4774082             -5.4007189              0.5132218
Ar             -0.7471900             -2.0348983              5.5053794
Ar              0.1312922             -1.7423586             -5.0062601
Ar             -3.0404484              1.0284268              6.0485871
Ar              1.8593792              1.6518888             -4.8901485
Ar             -1.0233656              4.3377941             -4.3840996
Ar              2.8504168             -0.6460703              4.8749338
Ar             -1.2822968             -5.0830973             -4.1599670
Ar              2.5895157              3.3108109              4.4649687
Ar              1.5898629             -4.6624470              4.2380964
Ar              1.3767624              6.7716165              3.7932518
Ar             -4.4887464              0.4340148             -0.5668961
Ar              1.8435942             -4.7827160             -6.4162140
Ar              0.6224355              1.4832636              7.2386675
Ar             -0.6450781             -7.5802511              2.6584973
Ar              2.7315910              1.5050554              1.2906176
Ar              0.9680313             -7.6118608             -2.5145584
Ar              3.8507644             -1.5850191             -5.0608104
Ar             -4.2860631             -6.3022083              2.4626663
Ar             -1.2613950              1.3977473             -6.8855292
Ar              3.2013601              5.2334631              0.5929202
Ar             -3.4276668              2.7039762              2.5203506
Ar             -2.0275581             -5.5646849              5.5292844
Ar              1.6192030              5.2809148              7.4731300
Ar             -4.4072464             -3.3091003              0.0178290
Ar             -2.6437118              3.7462059             -1.0274990
Ar              1.2175497              4.3538323             -7.3955359
