42
Energy:            -190.7863
Ar             -0.1428433             -1.7779781              0.1704628
Ar              2.4457881             -4.3208899              0.4874165
Ar             -0.2909702              0.7882566              2.7402284
Ar              1.0578679              1.5913539             -0.6191058
Ar             -1.4088120              4.3399264             -0.9871445
Ar              0.0055260             -4.1868168             -2.5720837
Ar              0.9352330              4.2527089              1.9822599
Ar              2.7160077             -1.4874857             -2.0315189
Ar             -3.3165592             -2.6817823             -1.3772276
Ar             -2.7877149              3.5453812              2.4369565
Ar              2.2651561              5.0589136             -1.5055911
Ar             -1.4059115             -5.0910935              0.9756073
Ar              5.6313781             -1.1209420             -4.3263226
Ar              5.6607064             -3.1198536              2.0755696
Ar             -0.4423147              3.4157347              5.4228740
Ar              3.7467216             -1.6598606              5.1122951
Ar              2.9608093             -0.6421229              1.6336760
Ar              0.5418275             -2.9041860              3.5682608
Ar             -1.9651988              5.7030811             -4.4484853
Ar              2.9062265             -3.7493669             -4.9677184
Ar             -5.8417016              0.1084868             -1.7563679
Ar              6.2038540              0.5018365              3.1467397
Ar             -5.5219128              0.9459128              2.0303378
Ar              5.9570743             -0.3407032             -0.5697649
Ar             -3.2708643              2.2487203             -3.5836108
Ar             -3.9591157             -1.2798299             -4.8052088
Ar              3.9788944              1.9468301             -2.8560724
Ar             -2.5827086              0.8788775             -0.1918295
Ar             -0.7421725             -0.4826200             -3.1438573
Ar             -2.9700981             -1.8682808              2.4294491
Ar             -6.3057311             -2.5741351              0.8927427
Ar             -0.5999600             -2.7524541             -6.0416141
Ar              0.4354409              2.9065613             -3.9866263
Ar              0.3693440             -0.2258838              6.2237335
Ar             -3.1868458              0.7979956              5.0608848
Ar              2.8880460              1.9674563              4.3057529
Ar              2.1399373             -0.0676418             -5.4899610
Ar             -5.0954096              3.6649934             -0.5961379
Ar              3.3636915              4.8281590             -5.1936525
Ar              4.2587993              2.7920235              0.8352335
Ar             -5.9956144             -1.7606601              4.6356500
Ar             -1.3902415              0.9310440             -6.5894622
