42
Energy:            -187.1213
Ar             -0.1718167              0.5373616             -0.1006296
Ar             -1.8396882             -0.7432712              2.9610532
Ar              1.2057895              1.0582312              3.3197833
Ar              2.9915848              0.9240164             -1.9927527
Ar             -0.1148969              0.5641344             -3.7781958
Ar              2.7568064             -1.3741598             -4.9703932
Ar              1.3725920             -2.3193491              1.8731564
Ar             -1.9704512             -3.5556653              0.5651409
Ar             -3.3107284              0.1936992             -5.5877095
Ar              0.3900211             -1.4337402              5.9235106
Ar             -1.5609595              1.8407104              5.6934290
Ar             -0.9128080             -2.7624738             -5.2513074
Ar             -2.8636128              2.3781266             -2.0811388
Ar             -3.3456812             -1.5905330              6.2555186
Ar             -2.6532163             -1.3783767             -2.2245858
Ar             -1.3947021             -4.2162649              4.1774074
Ar              4.5042371             -2.4140090             -1.4815946
Ar              4.3204744              2.8913417              4.0335059
Ar              0.0903359              0.2753278             -7.4120953
Ar              4.3545151              4.2364477             -2.5962022
Ar             -4.3702806              0.2570625              0.5467163
Ar              4.9713571             -3.3702824              2.1615007
Ar             -1.4391577              3.4738721             -5.6004954
Ar              2.2300852              3.4501572              0.8026010
Ar             -1.9284603              2.9268964              2.0218494
Ar             -4.9046959             -2.7200350              2.9382975
Ar              0.8085321              4.5591597              4.2444612
Ar              6.7892988              0.5440312             -1.2654255
Ar              4.1656886              0.1970598              1.3500268
Ar              2.3358885              2.6799387             -5.4637402
Ar              0.8524416             -2.5432479             -1.8677446
Ar              0.5237743              3.9023894             -2.3723051
Ar             -5.9593950              0.1612215             -2.8845717
Ar              5.9523906              3.5465119              0.7348528
Ar             -4.8794650              1.1249515              4.0968575
Ar              2.3920445             -4.4072362              4.7873748
Ar              5.6023176              1.1174245             -4.7113986
Ar             -5.1929470              3.3628972             -4.8427710
Ar             -5.5863286             -3.0873644             -0.7879513
Ar              2.0429459              1.8640444              6.8508332
Ar             -4.8126897             -3.1470163             -4.6077332
Ar              3.9406588             -0.9072236              4.8879398
