42
Energy:            -185.7523
Ar             -0.1042730             -0.5034237              0.7550675
Ar              3.0806325             -1.3653263             -0.7608630
Ar             -3.4623550             -1.3519867             -0.4225688
Ar              0.8259604              1.5360775             -2.2245118
Ar              2.6410203             -0.8729626             -4.3966582
Ar              3.0737726             -1.0332354              2.9020777
Ar              2.4844943              1.9939683              0.9480391
Ar             -2.3277527              2.1831595             -0.5751663
Ar             -2.9517937              0.4349565              2.8609800
Ar             -0.1699581             -2.6563183              3.7067417
Ar             -0.6732786             -1.7047207             -2.8014127
Ar             -2.8679573              1.0095306             -3.9962875
Ar             -6.3749962             -0.5140421              1.7735637
Ar              5.9363687              0.7719748              1.0366790
Ar             -4.3558110             -2.4717889             -3.7748572
Ar             -6.0056278              0.7973834             -1.8180354
Ar              4.3126866              2.2779061              4.1738956
Ar              4.5443768              1.7083100             -2.3099280
Ar              4.2085354             -4.0387173              4.7086075
Ar             -1.7471160             -5.2242611             -3.3868568
Ar             -4.9295779              4.1076829             -2.8212759
Ar              6.4786189             -1.5695918             -2.0733483
Ar              4.8897400             -3.7992568             -4.7242732
Ar              0.5176891              1.3346414              4.0607701
Ar              5.9846828             -2.8930434              1.4950269
Ar             -1.3039115              4.4047352             -3.5307306
Ar             -5.3307009              3.1251789              1.1989005
Ar              4.3455405              4.8951406             -0.1857173
Ar             -7.1658320             -2.6636214             -1.1931241
Ar              0.4060891              1.8835554             -5.8308086
Ar              6.4194082             -0.8239070              4.5733380
Ar             -4.3767452             -5.0150968             -0.7218674
Ar              2.4745891              4.5435665             -3.6163429
Ar             -1.6959199              3.9494657              2.6131849
Ar             -3.7640247             -3.2910205              2.6647916
Ar              1.8259404             -4.3718473             -2.5072745
Ar              1.9202830              4.9546821              3.1103649
Ar              0.5286413              4.7961076             -0.3534390
Ar              5.2144648             -5.1520464             -1.2638735
Ar             -0.9218647             -4.0422815              0.1557467
Ar             -3.0116071              5.9288596             -0.2646138
Ar              2.5171023             -4.3832140              1.3375041
