42
Energy:            -185.5846
Ar              1.3258292              0.0369348             -1.1358343
Ar              0.7273794             -1.5729426              5.6491917
Ar             -0.9214077              2.8416819             -1.6929989
Ar             -4.7362161             -0.3595689             -2.2633351
Ar              3.3731035             -2.9995105             -0.7026325
Ar              2.0554805              3.1989496              0.4935362
Ar             -2.2353714              0.2999292              0.4745985
Ar             -0.0468918             -2.7015211              0.9756832
Ar              2.5519973              2.9898847             -3.1901060
Ar              2.4776022              6.6027734              1.8440118
Ar             -1.3009998              3.7820397              1.8496734
Ar              3.0943669             -2.5858568              2.9530319
Ar             -1.4115178             -1.9397431             -2.3597487
Ar             -2.8764658              5.8913446             -2.2825927
Ar              1.1415112             -5.1998608              4.7160599
Ar             -1.4652609             -5.4905665             -1.1619434
Ar              0.9128603              6.0712699             -1.5861836
Ar              1.8640019             -5.7301209             -2.7484028
Ar              0.7774047              0.4852639              2.5418468
Ar              4.7051464             -0.0421453             -2.7213657
Ar             -1.9678709             -5.3426695              2.6693080
Ar             -4.1528115              1.9812204              3.3180341
Ar             -6.0750316             -0.2461430              1.1768835
Ar              5.0534792              3.7205468              2.5884548
Ar             -4.3842480             -4.0352596             -3.2210406
Ar              4.3455179              0.3361130              1.0148344
Ar             -0.1468678              0.7975438             -4.6445310
Ar             -4.5050066              3.0117202             -0.4312618
Ar              1.9062348             -2.2225298             -4.0754271
Ar             -3.8058041             -3.0461644              0.3698531
Ar             -3.5315556              2.5190139             -4.2592947
Ar              4.7136462              5.2352666             -0.9914403
Ar              1.6568937             -5.9300784              1.0607775
Ar             -0.3988572              4.6209858             -4.9176020
Ar             -3.1365566             -1.2552547             -5.5730840
Ar             -1.0340531             -4.5224057             -4.9385463
Ar              1.6438361              3.7840489              4.2013454
Ar             -1.1631125              1.6623015              5.4491617
Ar              2.4004386             -5.0935419             -6.4584337
Ar             -2.0947403             -4.0712001              6.2846222
Ar              3.7423915              0.7178045              4.7424536
Ar             -2.4579278             -1.4996300              3.6138041
