42
Energy:            -190.1719
Ar             -0.9142075              1.8225764              1.5722995
Ar             -2.8779780             -0.0657172             -0.9514480
Ar              0.4217117              5.4113846             -0.9746095
Ar              1.7635022             -0.1189153              3.2282240
Ar             -2.8387570             -3.9100879             -0.7615927
Ar              0.8536177             -5.3930865             -1.4700269
Ar             -3.0123363              3.8091250             -0.7158482
Ar              2.3287914             -3.3857157              1.5054829
Ar              2.4007511              0.4012886             -0.2152450
Ar             -4.3028338              0.4605633              2.3726806
Ar              3.3627836              3.3820393             -2.1285994
Ar             -1.2427891              5.3746814              2.3816098
Ar             -0.9578567             -1.7988278              1.5883064
Ar             -4.5413815             -1.8457567             -3.6324287
Ar              3.8283391             -2.7745142             -1.7614850
Ar              2.2679783              3.5959674              1.7010895
Ar             -0.1976996              1.9865195             -2.2449476
Ar              0.1406982             -1.8850355             -1.8697987
Ar              0.4594701             -3.3047783              4.7922526
Ar             -1.6715470              4.9951257             -4.0582200
Ar             -3.8903768             -3.2822687              3.0652633
Ar              2.4813704              0.0759665             -3.9001777
Ar             -3.0748544              3.1398932              4.7386747
Ar              1.3628476              3.2392048             -5.4062323
Ar             -1.6001610             -0.2315253              4.8791183
Ar             -3.7939363              1.9178973             -3.9111164
Ar              1.8892034             -3.4417779             -4.8729143
Ar             -1.0990565             -0.4485945             -4.9956366
Ar              1.7060501             -0.1882223              6.8785690
Ar              0.6395655              2.9431832              4.9538828
Ar             -0.8216093             -5.4902305              1.9776350
Ar              4.1563118             -2.3567156              4.8910506
Ar              5.6898915              2.6466939              0.8694457
Ar             -1.6709403             -4.1922725             -4.2611708
Ar             -5.9300103             -2.0072066              0.0262367
Ar              5.2484474             -1.0028651              1.5759318
Ar              5.7471328              0.3829459             -2.0373990
Ar              5.1380666              2.1996030             -5.3144277
Ar              4.5423820              1.7980457              4.4230926
Ar             -6.1265163              1.6715968             -0.8537374
Ar             -5.4187216              4.0859608              2.0384324
Ar              5.4119239             -1.7932216             -5.1259605
