42
Energy:            -179.6293
Ar              0.5731536              0.0765560              1.1810356
Ar              1.7776613             -2.7481119             -0.9845643
Ar             -2.1535643              2.0687394             -0.4628119
Ar              2.9705135              0.8821543             -1.4174990
Ar             -2.2789744             -1.8086953              0.5749303
Ar              3.8414299              0.9573325              2.2272733
Ar             -3.8993662             -0.8148788             -2.5549897
Ar              2.6923155             -2.7188154              2.5680845
Ar             -4.6106506             -2.1914186              3.3960557
Ar             -2.6334613              1.1040175              3.1221785
Ar              4.4122823             -1.7299127             -3.6232420
Ar             -0.3477370             -0.3069019             -2.5136392
Ar              0.7942752              2.1936632              4.2016972
Ar             -5.5360958              2.5694638             -2.2142395
Ar             -5.2208001              0.2920930              0.6361601
Ar              0.5262974              3.3475162             -2.8756946
Ar              4.2108161              3.5102663             -3.7412474
Ar              1.0255722             -2.9604229             -4.7187753
Ar              3.7596891              4.4701336              3.4780045
Ar             -2.5587336              1.9943056             -4.5187991
Ar             -6.5403692              1.1088940              3.9351400
Ar              5.0174166              3.7013319             -0.0253411
Ar              6.1074566             -1.6652106              3.7392827
Ar              5.2804747             -1.7223191              0.0372510
Ar             -5.4010868             -3.4816264             -0.2781719
Ar             -0.6449855             -1.9000039              4.0695699
Ar              5.9526605              1.8487756              5.1200743
Ar             -5.7305971             -3.5561249             -4.1040330
Ar              2.0146982              0.7380219             -5.1503295
Ar              2.8990513             -0.5390190              5.5538282
Ar              3.4852279             -5.3494260             -2.9675222
Ar             -1.7564080             -3.9359963             -2.3337963
Ar             -8.1117784             -1.6817831              1.7559032
Ar             -8.4701184              1.9513677              0.3493844
Ar              7.4343829              1.1634523              1.5323937
Ar             -2.7635334              5.1747730             -2.4291258
Ar             -9.0350011              2.1838137             -3.4847484
Ar             -0.2952025             -4.7551530              1.3877388
Ar              6.6247266              1.0166903             -2.1837175
Ar              1.2908067              3.6236015              0.7249374
Ar             -7.5896185             -0.9263742             -1.9823311
Ar             -6.1121874              0.3492768             -5.2519456
