42
Energy:            -188.3161
Ar              0.2912370              1.0349930             -0.2548868
Ar             -2.2643546             -1.5528911             -1.1178325
Ar             -0.2900678             -1.0617489             -4.1844827
Ar             -1.1514683              2.3947427              3.4419928
Ar              1.2524896             -2.5342135             -0.1290011
Ar             -2.3472891              1.6601053             -2.7898282
Ar              3.8034222              0.3442167              0.6399206
Ar             -3.9155898             -1.4432879             -4.5644468
Ar              0.8537813              2.6391192             -4.2517504
Ar              1.3354951             -0.2685766              3.0696105
Ar              2.8086023             -1.7206061              6.0687815
Ar              7.1640680             -0.6749228              1.6300382
Ar              2.2254236              3.3045726              2.2441229
Ar             -1.8830784             -4.7357962              0.7219267
Ar             -4.9033644              3.9974198             -1.2962345
Ar             -4.1998992              4.4372787              2.4895581
Ar             -5.3922595             -1.7418063              1.2813695
Ar              3.1513225              3.3974581             -1.3802907
Ar              5.0812478             -2.6402214             -1.0872743
Ar              2.4851023             -3.5774792             -3.7242315
Ar             -1.9646299             -1.4904140              2.5160914
Ar             -1.1772634              4.3572179             -0.0329261
Ar              2.8436015             -0.0786026             -2.7242021
Ar              4.0608348             -2.7753808              2.5578916
Ar             -1.1574804             -4.4983138             -2.9891806
Ar             -5.7303542              0.2264225             -1.8412959
Ar              0.6363090             -3.8794705              3.5813680
Ar             -3.2976126              1.3706052              0.7104936
Ar              4.7461515              0.9597375              4.1162482
Ar             -2.1077271              5.1901383             -3.6711439
Ar             -4.4552193              0.7707874              4.1868054
Ar              5.9998850              3.1891069              1.2731448
Ar              4.6462892              2.4153192             -4.7949752
Ar              2.5302834             -0.2674475             -6.4352138
Ar             -4.9060325             -3.9401097             -1.8100566
Ar              5.6633307             -1.4455627             -4.6670859
Ar             -5.2284309              2.5124985             -4.8511618
Ar              1.6881886              2.0930102              5.9255449
Ar             -6.8689300              1.8843416              1.3811516
Ar              6.5906817             -2.0951003              5.2136138
Ar              6.4204814              0.9586136             -1.8195625
Ar             -0.9898531             -0.5915206              5.9531238
