42
Energy:            -180.4083
Ar             -1.1949836              0.1621115              0.7323749
Ar              2.1694521             -3.9062521              3.5607786
Ar             -2.4402153              2.9118977              3.0966551
Ar              3.7109762              4.3415334             -0.5487094
Ar              2.3687695              0.9013097             -0.2023802
Ar              4.1431485             -1.7265134             -2.1479787
Ar             -1.2920128             -3.1498206              2.4835115
Ar             -2.8576397             -0.4721341              4.2902869
Ar              0.7260719              3.5821891              1.5482480
Ar             -1.6798376             -3.0119753             -1.1592994
Ar             -0.4557013              2.4848132             -1.9304022
Ar             -3.1147934             -0.1005080             -2.8231027
Ar             -3.6031223             -5.5152431              0.7196619
Ar              1.4980712             -2.4820344              0.2766858
Ar             -1.9515537              5.4687261             -0.4577232
Ar              4.2231887              2.2679491              2.6389334
Ar              1.3274569             -0.1773201              3.3168401
Ar              2.9470189              2.1248951             -3.5844807
Ar             -1.3695472              6.4747802              3.0863071
Ar              3.9755603             -5.0629276             -0.2009471
Ar              0.6206747             -0.8173776             -3.0471790
Ar             -4.0173285              2.3219254             -0.2312142
Ar             -3.4392911              3.7923472             -3.6365406
Ar             -2.0960009             -6.3053266             -2.7251129
Ar              1.1351451              5.5898254             -2.9802792
Ar              1.3278430             -4.4546560             -2.9443667
Ar             -1.8334828             -3.1209237             -4.8294315
Ar              4.6926840             -1.4589172              1.6875258
Ar             -4.4568018             -1.5212163              0.7820875
Ar             -4.7038776             -3.7507832              3.8651593
Ar              6.1641289              4.0545508             -3.3756397
Ar              2.8252382             -7.4220263              2.5557018
Ar             -4.9734733              5.3029019              1.8631659
Ar              4.9629070             -4.9305313             -3.8804104
Ar              6.1892289              0.3845899             -4.4417978
Ar              5.9689518              1.2906841             -0.7420670
Ar              1.3394197              7.1200630              0.4764132
Ar             -0.7919795             -6.5295172              3.8386995
Ar             -4.9936223             -3.5856990             -2.4810431
Ar              0.2080707             -5.9278858              0.3112416
Ar             -5.8537338              1.3709402              2.8614964
Ar              5.7490372             -4.8730423              3.0817894
