42
Energy:            -186.9630
Ar             -1.2930648             -0.1889731              1.0931990
Ar             -0.2082615             -0.8818824              4.5448836
Ar              3.7627323             -0.2545226             -1.5506889
Ar             -2.4888378              0.2357628             -2.2352767
Ar             -4.7147095              0.4087199              0.5891898
Ar              0.4497296             -1.8636409             -1.8211910
Ar              2.1077624             -0.7349408              1.5554391
Ar              2.9978889             -1.9548805             -4.6957749
Ar              5.6489360             -1.7062891              1.4276451
Ar             -6.0764340             -0.9990952             -2.5077313
Ar             -5.2525757              2.7491969             -2.2142287
Ar              4.4969696              1.9913651              1.4596831
Ar              7.2776940              0.7063140             -0.9278948
Ar              0.9009609              1.8957797             -1.0538497
Ar              6.2317985             -1.8089482              5.1257975
Ar             -3.0679322              1.7908239              3.6456992
Ar             -3.6761651             -2.0322729              3.2393167
Ar              0.6315550              2.4623124              2.7625802
Ar             -6.8185701             -2.5249225              0.9801326
Ar             -1.3477561              3.1265262             -3.9862300
Ar              3.1405450             -5.4389787             -3.3104243
Ar              4.6522775              3.3054469             -2.0225884
Ar             -3.2185213             -2.9675726             -0.4516726
Ar             -0.3283764             -5.4264445             -1.4199914
Ar             -0.2956430             -3.6261875              1.8822420
Ar              5.9852874             -2.9879329             -2.3151604
Ar              1.5516965              5.1815437             -3.0217377
Ar             -6.7324180              0.4290429              3.5974847
Ar              2.3429451              4.9514324              0.6016558
Ar              2.9952205             -3.9148998              0.0145406
Ar             -8.2088002              1.1079033             -0.0526991
Ar             -2.2821112              3.2978716              0.1050882
Ar              2.9487462             -3.3248220              3.9313823
Ar             -3.2782077             -2.8261598             -4.1727747
Ar             -5.8024502              3.7280006              1.5914294
Ar              5.9137348              0.4642329             -4.4505726
Ar             -0.5254067             -0.4687756             -5.2590643
Ar             -4.1926432              0.7593216             -5.4105846
Ar             -4.5090824              4.5490897             -5.4398713
Ar              0.0418335             -4.1901638             -4.9501789
Ar              3.3130699              0.5326784              4.7681306
Ar              2.3022372              1.7495070             -4.4734222
