42
Energy:            -182.2816
Ar              0.3036324             -0.0413825             -0.7395538
Ar              0.6039004             -2.4158159              2.0097099
Ar             -0.3176988              3.0229243              1.2047171
Ar             -0.6086178              3.1795311             -2.3643258
Ar              1.2104828             -3.6130423             -1.4634509
Ar             -2.5107630             -3.4172787              3.7168045
Ar             -2.0337287             -5.4210531             -2.2057533
Ar              2.7337222              4.3318441              2.9851087
Ar              1.0186093             -6.2936951             -4.2516030
Ar             -3.2047815              1.3528596             -4.4374545
Ar              3.3177799             -0.2080551             -3.0075108
Ar              3.1825038             -5.0002173              1.5922882
Ar              3.0360340              2.4372410             -0.3940153
Ar             -3.6172258              3.5460732              2.6742461
Ar              1.9700258              0.7716077              2.7768447
Ar             -1.5794342             -1.7958311             -3.3569100
Ar              1.4883971              5.8330686             -0.3186093
Ar             -1.9764053              0.1101548              2.6602050
Ar             -2.3332192              5.7694791             -0.1682949
Ar              3.7906923             -1.4264077              0.4307365
Ar             -0.6325129             -5.6657222              1.2232782
Ar             -0.3982741              6.7608561             -3.3814701
Ar             -0.5375328              2.6562850              4.8985619
Ar              1.5677053             -2.7358852             -5.1516855
Ar              0.9868741             -4.8715057              4.6853629
Ar             -3.7706442              4.8956703             -3.4748387
Ar             -3.2484392              1.3273308             -0.6217273
Ar              3.6242307             -2.1903310              4.2473593
Ar             -0.6034132              6.0923616              3.2143292
Ar             -4.2952278             -5.6636590              1.1968468
Ar             -2.5385532             -2.4867864              0.0801848
Ar              2.5805143              3.8951051             -3.8890972
Ar              1.7895077             -7.4806585             -0.8404221
Ar              2.8388927              1.6404719              6.2148090
Ar             -1.6356709             -4.2163869              7.2373486
Ar              0.1471535             -1.1665372              5.5056072
Ar              1.5623964              5.3434814              6.3902866
Ar             -2.0670467             -7.0642432              4.3712864
Ar              1.4596951             -8.1795515              2.9552062
Ar              0.4649657              0.8405183             -5.0258955
Ar             -1.7895551             -4.4485976             -5.9368723
Ar             -0.9596377              4.1299186             -5.9782335
