42
Energy:            -182.8162
Ar             -0.9301191              0.3110555             -0.3969266
Ar              0.2393563             -2.7783715              1.0013264
Ar             -1.5236344              2.8870221              1.9120824
Ar             -2.1806790              3.4150284             -1.7014047
Ar              0.0251882             -2.1654084             -2.6728975
Ar              3.1495942             -3.9066591             -1.9327986
Ar             -2.2614265             -0.6988471              2.9008606
Ar              3.3930985             -2.5746916              2.7731939
Ar              1.5631628              4.3054234              3.3049870
Ar             -0.7423414              6.1378393              0.3826165
Ar             -1.0930191             -5.3549147             -1.2442341
Ar              0.5727677              1.4703376             -3.5266831
Ar             -2.8606607             -4.4625367              2.1534628
Ar              1.4631484              3.0675162             -0.2275417
Ar             -2.9500870              0.1906430             -3.5397153
Ar             -1.9866029              5.6918306              4.1283450
Ar              1.3257565              0.5825062              2.4886308
Ar             -2.6767344             -6.9414534              5.0072679
Ar              2.9752510              6.3867335              0.2237688
Ar              3.0797861             -1.1139310             -4.5199824
Ar              0.8907682              5.2476564             -3.0916642
Ar             -0.8561863              1.9798497              5.3675694
Ar             -0.9555071             -7.6791085              1.6858042
Ar             -1.8644466              3.6030064             -5.3619918
Ar              2.9189418              1.5801408              5.6711734
Ar             -3.3433497             -2.3670450             -0.8173565
Ar              0.6605715             -1.5063399              5.3770560
Ar              4.0327072              2.5431025             -2.8789849
Ar             -4.4536224              2.3842038              3.9788931
Ar             -2.7907996             -3.6523347             -4.4028681
Ar              0.9570383              7.9964301              3.1389865
Ar             -0.4513291             -1.0731208             -6.1509903
Ar              0.3774199             -4.9324552              4.0428047
Ar             -1.5210803             -7.2285314             -4.4614257
Ar              2.2504515             -5.9177597              0.9897951
Ar             -4.4583148              1.1447644              0.2945296
Ar             -2.5577250              6.8486787             -2.9236504
Ar              2.7453213             -0.4103024             -0.7751319
Ar              1.7618278             -7.3484123             -2.5229601
Ar             -2.6594542             -3.1887914              5.6857746
Ar              1.0877650             -4.5725530             -5.1425743
Ar             -4.3483438              5.0142425              0.9796582
