42
Energy:            -189.4537
Ar             -0.3096450              0.2532911             -1.3673498
Ar             -0.4967547             -0.8001703              2.2925834
Ar              1.7596130             -2.2123029             -3.1760665
Ar              1.7823110              1.8052697              1.1555417
Ar              3.1096020              1.2214714             -2.1933825
Ar             -2.1410826             -1.5016827             -3.9567444
Ar             -1.7823417              2.4951452              1.2467316
Ar             -2.1607092              2.4573206             -4.0191834
Ar              2.5244697             -1.6504365              0.3805942
Ar              3.3528559             -4.4175511              2.9066519
Ar             -3.9232808              0.8577767             -1.2555471
Ar              3.9151648              3.3855916              3.6170160
Ar              4.5214059             -4.3054546             -4.5276242
Ar             -0.7302369             -4.7938433             -2.3672841
Ar              3.9568680              4.4106220             -0.2477859
Ar              0.0997190             -4.3763117              1.2542547
Ar             -6.6516607              3.1155123             -2.2922301
Ar             -3.4664120              2.8512535              4.5345110
Ar              5.4059621             -1.8143219             -1.8483735
Ar             -2.5927678             -2.3717710             -0.2549262
Ar              4.4957725             -0.4819819             -5.2160421
Ar              3.1110800             -0.4766516              3.7991268
Ar             -5.5522183             -2.4028290             -2.4386268
Ar              0.7890389              5.1981422              2.0301164
Ar             -5.3048264              0.5408555             -4.7360465
Ar             -2.1918659             -0.5306107              5.5748660
Ar             -2.8722131             -3.5617591              3.3606321
Ar              3.1324069             -4.9813266             -0.9991198
Ar              0.3877562              3.8941454             -1.5974225
Ar             -3.3238878              4.7009186             -1.3083255
Ar             -4.1979954             -0.1799634              2.3486609
Ar             -2.9439256              5.8673577              2.2835549
Ar              6.7230893              1.6623402             -2.6609837
Ar             -5.9375726             -3.3240355              1.1900193
Ar              0.8692756              0.7619494             -5.1250484
Ar              0.2796898              2.1780390              4.4775090
Ar              0.5462077             -3.0955100              4.9581866
Ar              5.3348711              1.0576261              0.8412746
Ar             -3.2609528             -5.9402823              0.3335019
Ar             -5.5147541              3.1698944              1.3378263
Ar              6.1336707             -2.3789826              1.7740112
Ar             -7.2618109              0.0319731              0.0041451
