42
Energy:            -188.3555
Ar              1.3649592             -0.6587742              1.4713615
Ar              0.5838386             -1.1307288             -4.8592072
Ar              2.2403576              1.9786645              4.0439643
Ar             -1.2861211              0.8311782              3.5422956
Ar             -2.0286682              1.2667095              0.0843886
Ar             -1.8620204              1.4255319             -3.5774513
Ar             -2.3833019             -2.1118749              1.6672180
Ar              4.3041170             -3.0031272              1.4285006
Ar              1.3561227              1.2897944             -1.5977317
Ar             -0.9395800             -1.6389330             -1.5757191
Ar              2.4724025             -2.5140158             -1.7774044
Ar             -0.0597351             -2.8127621              4.3392182
Ar              4.6322659              0.0895640             -0.5517250
Ar              1.5827874              2.6022396             -4.9887057
Ar              0.4734902             -4.2935624              0.7490210
Ar             -3.3899233              3.9205961              2.2992796
Ar             -0.7272390              4.0749356              5.1584631
Ar              0.2226325              3.7223863              1.4538464
Ar              4.0955624             -0.2189511             -4.2291270
Ar              3.3337307             -3.8259191             -5.1029394
Ar             -3.6027009             -1.6269413              5.1546498
Ar             -2.0872411              4.5979207             -1.4401669
Ar              1.6133300              4.9626511             -1.8848824
Ar             -3.0845441             -2.2509603             -4.4470877
Ar             -4.9590381              0.5142900              2.3026684
Ar              3.3083684             -1.5155409              4.7877259
Ar             -3.1399204             -4.5566672             -1.0677332
Ar              4.7602596              3.0997706             -2.7410605
Ar              7.3749570              2.5528307              0.1479357
Ar              6.0468762             -3.0069831             -2.2719984
Ar             -5.2852598              2.6369116             -0.9099967
Ar              3.7691240              3.3438708              0.8617548
Ar              0.2801218              0.1415187              6.7439062
Ar              7.8209266             -1.3077582              0.6239455
Ar             -0.1030808             -4.6757921             -3.4516325
Ar             -4.6260635             -1.0761352             -1.1719309
Ar             -5.4660864              0.8023662             -4.2833208
Ar             -4.0040726              2.1427547              5.6515782
Ar              5.5761306              0.7141037              2.9207369
Ar             -5.8757601             -3.1694820              1.7567121
Ar              6.9142592             -2.5987828              4.1045450
Ar              7.5575374              0.3921353             -2.8913523
