42
Energy:            -182.6905
Ar             -0.0939263             -0.7388713              0.0943963
Ar              0.5268848              1.0590503             -3.4327480
Ar              0.5617840             -1.1388704              3.7599769
Ar             -0.6636670             -4.1380382              5.5101394
Ar              2.5268914             -3.6784740             -0.5448327
Ar              0.0908299             -2.4546911             -3.0913154
Ar              0.8008158              2.2057756              2.1748388
Ar              2.6923614              2.6058641             -0.8793454
Ar             -0.5839590             -5.7656723             -1.6923835
Ar              0.7931776              4.7709557             -3.2740850
Ar              1.6715618              2.1018583              5.6961049
Ar             -1.2309612              2.6520186             -0.8317600
Ar             -2.1564978              1.2932061              4.0698159
Ar             -0.2157971             -4.2106041              1.7510726
Ar              0.0210955             -4.0331271             -6.4222579
Ar             -2.9323947             -3.0688142             -0.5448341
Ar             -3.5076467             -5.8766830              1.9153007
Ar             -0.6640586              4.7715295              4.4791009
Ar              0.6075641              2.6462404             -6.7213848
Ar              2.2409395             -0.9284216             -5.9896204
Ar             -2.5225712              5.9744592             -1.7388092
Ar             -3.1615690             -3.6190099             -4.2945324
Ar             -3.6789568              0.4504830              0.8468648
Ar             -2.4042624              3.1410734             -4.4537554
Ar             -1.5094801             -0.5360921             -6.1076586
Ar              0.4005199              5.5771777              0.6786112
Ar              3.9807273             -0.7659971              5.1892323
Ar              3.9270731              1.5928949             -8.2212863
Ar              3.5564236             -0.7290403             -2.4417493
Ar             -1.5279126              2.2569792              7.5830897
Ar              3.1722287             -4.1597737             -4.2240893
Ar             -4.8787740              3.0186756             -1.5726733
Ar             -3.2000894              4.1876681              1.7834380
Ar              3.7351108              2.4658106             -4.5370040
Ar              3.1690729             -3.8080644              3.1526831
Ar             -3.0051736             -2.2957181              3.1666572
Ar             -2.8888755             -1.2242502              6.7228735
Ar             -4.2529975              4.0070235              5.4813132
Ar              0.7297710             -0.9991128              7.4738525
Ar             -2.9254671             -0.1214858             -2.7168414
Ar              2.8628564             -4.0031222              6.8635804
Ar              3.3884576             -0.4462528              1.3678333
