42
Energy:            -177.9152
Ar             -0.2260464              0.2502613              2.1753114
Ar              2.0594956              0.7996985             -0.6255720
Ar             -1.1687680             -0.0645154             -1.9387133
Ar              2.6879261             -1.8506496              3.1145586
Ar              1.2095376             -2.1460928             -3.7088408
Ar             -3.2302640              1.5474071              0.5136734
Ar              3.0577644              1.8045925              2.8295723
Ar             -0.7697243             -3.2062997              3.5992878
Ar             -0.7105510              3.8943973              2.1711643
Ar             -2.7324627             -2.0250282              0.7221130
Ar              3.0684202              3.3220941             -3.1730171
Ar              4.4117343             -2.1022168             -0.2247160
Ar              5.5127109              1.7724063             -0.3674069
Ar             -4.8039074             -0.9635358             -2.1550203
Ar             -3.4635816             -0.2340204              3.9203622
Ar             -2.4835163             -0.9640425             -5.2098479
Ar             -4.5204110             -3.9048573              3.2782671
Ar             -5.7426342              2.7387213              2.8511495
Ar             -3.6392501              2.4495966             -3.1839790
Ar              6.1329174             -0.3196271              2.6581672
Ar              4.3809739             -0.1829001             -3.4348021
Ar              5.7938177              4.3052430              2.3754769
Ar             -2.0259958             -3.6787265             -2.5300972
Ar              4.4294342             -3.9655371             -3.5443769
Ar             -0.4598440              3.5082236             -1.5334826
Ar             -7.2990151              5.4925821              0.7276862
Ar              0.7612663             -2.5898054             -0.0038717
Ar              2.5941874              4.4521427              0.3287375
Ar             -6.6024243              2.1419889             -0.8492684
Ar              1.9933683             -5.3924679              2.0191295
Ar              4.7676705             -5.9207693             -0.4106653
Ar              6.7817582              2.7021182             -3.8049048
Ar             -5.2410659             -4.3680012             -0.4867889
Ar              5.7859525              5.4016685             -1.3382269
Ar              1.2988196             -5.6131422             -1.9349115
Ar              2.3837734              5.3125943              3.9685442
Ar              5.6025588             -4.1253074              2.7720402
Ar             -6.1858342              5.2546475             -2.9438602
Ar             -1.5797196             -5.5228572              0.7099592
Ar             -6.1715891             -0.8912097              1.3799317
Ar             -3.6576171              5.0694663             -0.1499521
Ar             -4.6790300             -7.3699287              1.7652503
