42
Energy:            -181.9850
Ar             -0.7859625             -0.1559637             -0.5742110
Ar              0.4094819              3.1739677             -0.6402703
Ar              2.6290241             -1.4231318              0.1182861
Ar              3.8447267              2.0606805              0.2984265
Ar             -3.5222506             -1.5063427              1.5186344
Ar             -3.0720776             -2.7301609             -2.0457214
Ar             -2.3852126              2.0731178              1.7369439
Ar              0.0318943             -0.7722683              2.8623396
Ar             -0.2396771              3.6869291             -4.1994887
Ar             -1.4883726              0.2274058             -4.0978889
Ar              2.3865496             -3.8605701              2.8918572
Ar              2.0677119              0.8055745             -2.8623937
Ar              1.1835969              2.7320388              2.8484528
Ar              0.5654379             -2.5676793             -2.7861605
Ar              3.2061735              4.4211988             -2.7106129
Ar             -1.8729763             -3.7785290              4.0023269
Ar             -1.0020454             -5.8672722             -2.4177194
Ar              3.5301809             -0.1566409              3.6413727
Ar              1.9166827             -5.0365562             -5.0308488
Ar             -0.9906830              5.6455024              1.6573352
Ar              1.5528452             -1.1953681             -6.0390725
Ar             -0.6201211              1.6228272             -7.4061888
Ar             -1.8445042              3.7633008              4.9407003
Ar             -1.7004748             -3.2536047             -5.5685487
Ar              1.0179786             -2.4480744              6.0564668
Ar              2.7024269              5.6520966              0.9587015
Ar              2.8265894              2.4667578             -6.0618391
Ar              0.6654397              1.2250499              6.1276438
Ar             -0.4522712             -3.6505665              0.5640377
Ar             -4.2210017              0.8229220             -1.4824761
Ar              2.6303679             -5.0663910             -1.0487195
Ar             -2.9916777              4.3510571             -1.2718585
Ar              1.2291301              6.0018289              4.6323982
Ar             -2.8165858              0.0267844              4.9776694
Ar             -3.7411989             -5.2470886              0.7111067
Ar             -4.5621914              5.0065650              2.3913583
Ar             -1.2006225             -6.9609252             -6.0251731
Ar              4.1742330             -2.3032700             -3.3313575
Ar             -2.4173036              7.4521854              4.5816072
Ar             -2.6876668              6.5276387             -4.3334633
Ar             -4.8675092             -1.0593438             -4.8706182
Ar              0.1690720              6.6531171             -1.8120347
