42
Energy:            -182.4484
Ar             -0.6022977              0.4351866             -0.9734353
Ar             -1.1248231              2.7514741              3.1914337
Ar              1.5240414             -2.2173813             -2.6796123
Ar              2.1226917             -1.0552900              0.9100929
Ar             -3.3151305              1.6606677             -3.4356276
Ar             -1.2505689             -0.8713794              2.6020127
Ar             -0.1683940              3.7967878             -2.5143947
Ar              2.1596858              1.2927642              3.9726049
Ar             -2.2597562             -1.8505533             -3.3829339
Ar             -0.9180861             -3.1541814             -0.2196563
Ar              1.8748607             -2.3079623              4.4847353
Ar             -0.7140751             -0.0387374              6.1244068
Ar              0.1253240             -2.7054352             -6.1629965
Ar             -1.4479534              3.5659888             -6.1479128
Ar              0.1189872              0.6444152             -4.5923812
Ar             -3.4164339              2.6336894              6.0255780
Ar             -4.2461965              4.9362158              2.9010310
Ar             -3.9481540             -0.8831778             -0.2161604
Ar              1.9318816             -5.4951896             -0.8960005
Ar              1.9513974              5.0801565              3.6325703
Ar             -1.4158086             -3.7318155              5.4712814
Ar              2.9600169              1.1645050             -2.2506337
Ar             -2.9708922              3.0389523             -0.0585553
Ar             -4.1863101             -4.4459036             -1.5882674
Ar              2.7027432             -5.0562785             -4.7247644
Ar             -3.4954321             -3.8688602              2.2739897
Ar              1.5669084              2.8742454              0.6735461
Ar              0.4023866             -5.0845723              2.5581441
Ar              4.0120673             -4.1067969              1.9087390
Ar              2.4520100              3.3706765             -5.3107599
Ar             -0.7918827              5.8171508              1.0660166
Ar             -0.2559285             -6.3668299             -6.8671958
Ar             -2.3349830              5.3054517              8.4525581
Ar             -4.1483362             -1.3012515              5.2599197
Ar             -3.3620734             -4.2032450             -5.9882647
Ar             -4.5536794              1.2328377              2.7167873
Ar             -1.7061796             -6.7813931              0.0050432
Ar             -0.8399206             -5.2345889             -3.3535930
Ar              0.4090329              3.4201339              6.6362218
Ar             -2.7965735             -0.2730972             -6.7240323
Ar             -1.4119949              6.1554822              4.8824210
Ar              3.4089265             -0.7867974             -5.5588948
