42
Energy:            -189.6032
Ar             -0.4202846              1.5139101             -0.6307360
Ar              1.3477822             -1.4506385             -1.7415143
Ar             -3.2637833              0.4505861              1.4211035
Ar              2.6333180              0.5736523              1.3286375
Ar             -1.3183569              0.0302385             -3.8161109
Ar             -0.5134438              2.3689615              2.8882432
Ar             -6.3791968              2.3324256              0.8696678
Ar              2.7420212              3.0726759              4.4531938
Ar              1.5578894             -1.2403391             -5.6808546
Ar             -4.0392748              1.4696736             -1.9372978
Ar              4.0934023             -3.7955483             -0.6522530
Ar             -2.4201810             -0.5097099              4.8472693
Ar             -0.5252561              2.2990958              6.6115437
Ar              5.9289582             -0.8563806              0.7027362
Ar              1.8618089              1.8706828             -3.5675195
Ar             -0.3219325              2.0384583             -6.7108705
Ar              2.5121198             -4.3813572             -3.8927695
Ar             -1.0992047             -3.6340136             -4.1391488
Ar              4.9118243             -0.1607395              4.3717134
Ar             -1.4833972              3.7645974             -3.4107914
Ar              1.2534804             -0.2917314              4.6408292
Ar              4.6235815             -1.0828363             -3.2887367
Ar             -0.2046180             -1.3671755              7.8355064
Ar             -3.5572001             -3.1625941              2.3593313
Ar              5.6240109              2.7821615              2.1488192
Ar             -2.8843525              4.0834279              0.4930204
Ar             -6.0760119             -0.4657892              3.5493118
Ar              4.7387919              2.1217453             -1.3498557
Ar             -4.0512960              1.7423861             -5.6591718
Ar             -0.3038162             -3.6834999              4.6823746
Ar             -0.2720568             -1.5482324              1.6527927
Ar             -7.3998917              0.7878301             -3.1904379
Ar             -4.0491354              2.8625366              4.0789208
Ar             -6.0301271             -1.3378405             -0.2887633
Ar              0.3117576             -4.6647004             -0.3633231
Ar              2.0313075              4.1040368              0.6107874
Ar              2.9682062             -2.9617873              2.7124867
Ar             -2.1380850             -1.3685856             -7.0820683
Ar             -4.6263871             -1.6818749             -4.0831882
Ar              3.0868332             -2.8570529              6.5165958
Ar              2.9926454              0.8805397              7.6245989
Ar             -2.4812674             -2.1078471             -1.1091118
