42
Energy:            -182.0266
Ar             -0.0038037              1.7547400             -0.9664612
Ar              0.6461569             -1.0227566              1.4369008
Ar             -1.8739539              2.6600210              3.8614336
Ar             -2.6642547             -0.6742912              2.6207398
Ar              3.4173997              0.6581589             -0.2671927
Ar             -2.3093514              3.5436879             -3.1243969
Ar              1.1842692             -1.5479189             -2.0807509
Ar             -2.2314957             -1.2695746             -0.9411986
Ar              2.4902211              1.4332552             -3.8233291
Ar             -3.4072855              2.0563034              0.3693089
Ar              4.7242864             -1.7869023             -2.8596022
Ar              3.8316168             -0.6315495              3.2084099
Ar             -5.5652208              1.3665964              3.5402655
Ar             -4.8171062              0.6986055             -2.7745574
Ar              1.5090301              2.4787308              2.3520855
Ar              1.9975831             -1.9252316             -5.6000549
Ar             -5.7379979             -0.9616500              0.5295491
Ar              6.6116369             -0.9600406              0.4477590
Ar             -4.9206123             -3.2232534             -2.4329824
Ar              6.1001800              1.7952880             -2.4228181
Ar              5.4330734              2.5573923              2.1549781
Ar              0.4023563             -0.2640189              4.9789028
Ar             -5.5238785             -2.4326474              4.1249954
Ar              2.3197574             -4.8835982             -2.9622858
Ar             -4.7419995              5.3371150             -1.0519505
Ar             -1.2836059             -3.6268233             -3.7658448
Ar             -1.1720377              4.9087723              0.7517945
Ar             -3.2016153             -0.1636449              6.2068355
Ar             -2.8166044             -6.2985605             -1.6386998
Ar              3.3330659              2.2109956              5.5696255
Ar              8.6593185              2.0124823             -5.2005311
Ar             -7.0271186              2.5841391              0.2005386
Ar              3.5000987             -3.1678205              0.3118167
Ar             -3.6150389             -3.9988720              1.2344817
Ar              5.4118690              0.1714075             -5.8772624
Ar             -1.2080488              0.1523344             -4.2857672
Ar             -1.7708661             -3.5380563              4.6255042
Ar              8.3571889             -1.1265869             -3.0679393
Ar              1.8193841             -3.7953730              3.5844131
Ar             -0.0857677             -4.3426991              0.0436875
Ar              5.8149740             -3.7719872              3.1451518
Ar             -4.6376101              4.8526506              2.6055001
