42
Energy:            -179.4386
Ar              0.2514334             -0.0558439              1.1531340
Ar              3.6416381              0.2475915              0.1770308
Ar             -3.1705845             -0.3825722              1.9275932
Ar             -2.1069158              0.2005114             -1.4895523
Ar              2.5361960             -0.3918136              3.9136766
Ar             -4.9780600             -2.0622189             -0.8104278
Ar              5.7225833             -2.8303954              0.2481062
Ar              5.5566436              3.3012943              1.2140433
Ar              1.1373707             -1.4509290             -2.1573798
Ar             -5.1111094              1.8231277             -0.1666183
Ar             -4.6595140              2.5672323              3.4858617
Ar             -4.9580845              0.5555784             -3.7163313
Ar              4.7433943             -3.4552868              3.8502411
Ar              4.8084702             -1.2187538             -3.0485903
Ar              0.8920371              2.3503818             -1.6440739
Ar             -0.7419366             -2.4905239              3.7749862
Ar             -1.7768595              3.0585044              1.0043624
Ar             -4.2378125             -0.8417649              5.3381666
Ar              4.5887706              2.7088439             -2.4176898
Ar             -6.7668233             -0.8290556              2.2260308
Ar              1.8885941              3.0479846              2.0868566
Ar              7.2258055              0.5934543             -0.7813156
Ar             -4.2664419             -3.7730994              2.6356678
Ar             -2.6654627             -2.5956111             -3.7552448
Ar              9.0696656              2.0637777              2.1515861
Ar             -6.7507245             -2.6697687             -4.0169257
Ar             -1.4902976             -3.1895504              0.0007039
Ar              8.3802302             -2.5812601             -2.3828334
Ar             -8.0710976             -0.0414939             -1.3331299
Ar             -0.9592548              1.3589443              4.3605984
Ar             -2.8877453              3.6056069             -2.6458465
Ar             -7.1702447              3.4488877             -2.7284949
Ar              4.5168367              2.6843553              4.7833178
Ar             -1.3552230              0.9060947             -4.9532120
Ar             -8.1967208              2.5842562              1.6724809
Ar             -8.4671041              0.6374499             -5.0217640
Ar              2.1207192             -3.1672304              1.1661117
Ar              6.1357024             -0.1153934              2.8613459
Ar              2.3553837              0.9560684             -4.8418603
Ar              9.1770486             -1.7711970              1.3629522
Ar              0.5776225             -2.2772320             -5.7368463
Ar             -7.6033511              1.1305421              5.2819143
