42
Energy:            -190.4905
Ar              0.6766346              0.3893830              0.4375978
Ar             -2.3950379              0.2810646              2.5370849
Ar             -0.4585613              3.4904779              2.1538124
Ar              2.6858609             -1.3055227             -2.1150581
Ar             -4.1678075              0.5350969             -3.3609792
Ar             -2.3616348              2.1012443             -0.6029388
Ar              0.6392132             -1.5363741              3.5996073
Ar              2.6820660              1.6935690              3.2764830
Ar              3.7811919             -1.3662699              1.5062186
Ar             -0.3748515              0.4601060             -3.1420679
Ar             -2.3425555             -1.5338624             -0.7085717
Ar             -0.2973640             -3.2851707             -3.3164170
Ar              4.0035577              1.8232714             -0.4259301
Ar              3.2519694             -4.3080933             -4.2208997
Ar              2.9560046              1.8846369             -4.0747562
Ar             -2.1823294              3.7974112             -3.8293428
Ar              2.8606043             -4.5596645              3.1634166
Ar             -2.3611601             -3.4865110              2.4865599
Ar             -4.3118239              3.5677858              2.1243189
Ar             -0.0771423              2.0579451             -6.4539161
Ar              1.5235409              4.8465153              5.0144641
Ar              4.2274039             -4.4119636             -0.5685323
Ar             -4.1061344             -3.2626488             -3.4583839
Ar             -0.4227533              1.5843177              5.4226850
Ar              0.7322298             -3.3522015              0.3078400
Ar              5.2696378             -1.0724727             -4.8179138
Ar              3.9453937             -1.3537445              5.2548048
Ar              1.6594850             -1.2488375             -5.8070642
Ar             -2.3133703              4.8568445              5.0712362
Ar              0.8520988              3.6488389             -1.4900949
Ar             -5.4068462             -3.3918934              0.1988579
Ar             -2.2248899              5.7331488             -0.3749782
Ar             -5.4329249              3.7579191             -1.6228828
Ar             -2.1127226             -1.2120487             -5.9699919
Ar              6.3069835             -1.1879298             -1.2142396
Ar             -2.4091369             -1.6364821              5.7998286
Ar             -5.4715600             -1.5384340              3.5325939
Ar             -2.2833329             -5.3159920             -0.8264052
Ar              2.8781340              4.9592556              1.4009641
Ar             -5.4682569              0.4030633              0.3134657
Ar             -4.2979915              1.6364239              5.3915987
Ar             -7.2465021             -1.4000701             -2.4486492
