42
Energy:            -178.0760
Ar             -0.4595022              3.2314120              0.7621859
Ar             -0.9119946              0.4620828              3.1498331
Ar              0.7032699              1.7620710             -2.3677747
Ar              1.8914628              0.0375797              0.7451855
Ar             -3.9474712              1.9192571              1.3785202
Ar              2.2155766             -1.1242377              4.1535594
Ar             -1.7733761             -0.9068715             -3.7697777
Ar             -4.0730967              0.8050008              4.9487565
Ar              4.1177050             -2.4242340             -4.7125190
Ar              1.3816463             -2.1191137             -2.0875112
Ar             -2.9904068              2.4459359             -2.2451755
Ar             -2.7314421              2.2641520              8.0574965
Ar              0.2719106             -3.6574894             -5.3117612
Ar              3.4615488              3.1868006             -0.1533255
Ar              2.1127623              2.6626601              3.4421282
Ar             -1.2343233             -2.0849581              5.7215353
Ar             -1.3000428              2.4177720             -5.5425337
Ar              1.3850882             -0.1192154             -5.3427260
Ar              0.4793083              1.2232261              6.5047980
Ar             -3.8328385             -1.8117097              2.2890927
Ar              2.2618309              3.5290684             -5.5081762
Ar              1.4877671             -4.6594993              4.8908863
Ar              4.2667965              1.1145616              6.2200401
Ar             -1.6269498              3.7517674              4.4907491
Ar              4.2526609              1.2373748             -3.3838126
Ar             -0.2807091             -3.0090556              1.9760153
Ar             -4.2667194             -1.3810615              7.9293393
Ar             -1.5368766             -0.9048334             -7.4754603
Ar              4.4321170              0.6849627             -7.1779813
Ar             -4.9475335             -0.7109538             -1.6607756
Ar             -3.6345179             -3.4262738             -5.7296599
Ar             -1.5435321             -0.3817660             -0.2779870
Ar              4.9671506             -1.3610563             -0.9643543
Ar              2.0014015             -2.1271588             -8.3390389
Ar             -4.5930071              0.5492985             -5.5525495
Ar              2.2071867             -2.0197472              7.6810194
Ar              5.1221796              0.5361652              2.4078188
Ar             -1.1816968             -4.4054902             -8.6754020
Ar              0.9315478              1.6670006             -8.5790511
Ar             -0.8803672             -0.7879117              9.3709731
Ar             -3.0233560              2.2150518             -8.8298439
Ar              3.3405799             -3.4862368              1.5429760
