42
Energy:            -184.6648
Ar             -0.4507313              1.0252645              0.7289996
Ar              1.6378730              2.8480969              3.1981915
Ar              1.0334546             -0.8657549              3.4680632
Ar              0.8926072              0.3462707             -2.6072275
Ar             -1.2584457             -1.7035950             -4.7212043
Ar             -2.3223932             -1.6736540              2.3238540
Ar             -2.6760362              0.8033549             -2.1703887
Ar             -1.7107558              1.5253994              4.2501195
Ar              2.8858999              3.0928907             -3.8937150
Ar             -4.1004716              1.3557050              1.2287303
Ar             -1.0248414             -2.2798125             -0.9835398
Ar              2.3078212             -1.4534628              0.1812421
Ar              2.9060976              2.2158625             -0.2163476
Ar              2.3026368             -0.2769460             -5.8769987
Ar              1.2393217              1.0958261              6.5848556
Ar             -0.9251938              2.0751112             -5.2651763
Ar              4.3509220              0.3072969              4.3900962
Ar             -3.2539229             -4.8223070              0.4972128
Ar             -4.1598386             -3.7662093             -5.8593256
Ar             -6.3326219              0.7144989             -1.7255476
Ar             -5.7945718             -1.9823932              1.1094483
Ar              5.6849977             -0.1985059              0.8829164
Ar              4.0216423              3.7046411              5.9469685
Ar             -4.7781929              3.6493649              4.0507397
Ar             -4.3618930             -4.0684446              4.1544949
Ar             -4.4162598             -2.5006350             -2.3511211
Ar             -1.5342734             -1.8533890              5.9613872
Ar             -4.9716935             -0.2906641              4.5340210
Ar              0.3952954             -4.2175825              1.9118444
Ar              5.0172427             -3.7037826             -0.7806090
Ar             -4.5650860              0.0463596             -5.2218520
Ar              2.4096730             -2.5389473              6.3973019
Ar              6.2213052              2.6856847             -1.7454276
Ar              4.0202140             -3.1689901              2.9436745
Ar              5.8268341              1.4799948             -5.5325009
Ar              1.8730746             -3.2329440             -3.1485132
Ar              4.4551135             -0.4611093             -2.6872452
Ar              5.3709439              3.3061133              2.3154186
Ar             -0.2896131              3.7698504             -1.7944207
Ar             -1.7232732             -5.1322480             -3.1621338
Ar             -1.7214823              4.3285112              1.7254158
Ar             -4.0889298              4.0944217             -1.2965258
