42
Energy:            -184.6075
Ar             -0.2024885              1.2069123              0.3673615
Ar             -1.7026431              3.4557120              2.8905163
Ar              0.6799855              4.9073872              0.4008478
Ar              0.4343893             -2.1549560             -1.3939796
Ar              2.5220608             -1.0376816              1.3727475
Ar             -3.2147866             -2.3014665             -0.5422844
Ar              3.4244843              2.4142730              0.6709165
Ar             -2.8118152             -0.1660301              2.5291763
Ar             -1.9411040              0.2594236             -2.8029297
Ar              1.9748747              0.9195815             -2.4789232
Ar              0.4388092              0.4747474              4.0092391
Ar             -1.7975306              2.2124882             -6.1859875
Ar              4.1231369             -0.3148454             -5.1963747
Ar             -1.7829721             -2.2222278              5.4859044
Ar              1.8085171              2.7763793             -5.6607256
Ar             -2.6262102              1.4730150              5.9437673
Ar             -3.7467173              2.1945242             -0.1299918
Ar             -1.6974125             -3.4400211             -4.0342401
Ar             -4.3991141              2.9967432             -3.7095161
Ar             -5.7125682             -0.2236684             -2.3366044
Ar              6.2202553             -0.0491231              1.0570945
Ar              4.1870687              0.6036137              4.1837877
Ar             -5.3460023             -3.7036258             -3.6068946
Ar              3.1296588              4.4381288             -2.5261187
Ar              2.2609739             -3.6818182             -4.2160997
Ar              0.3854110             -0.7229636             -5.4764416
Ar             -0.5347261             -3.0189335              2.0454985
Ar             -4.2190736             -3.6152072              2.8144850
Ar             -6.2270190             -0.4974248              1.3404348
Ar             -5.4416771             -0.8933670              5.0867567
Ar              5.2115729             -3.2387511              2.6632652
Ar              2.0831725             -2.7697262              4.7061059
Ar              1.9819778              3.8119019              3.7998118
Ar              4.3167185             -1.9104927             -1.6551072
Ar              6.0640737             -3.4912212             -4.5598158
Ar              5.4628050              3.3367616             -5.4828887
Ar             -3.9404864             -0.8218886             -5.6710700
Ar              5.6461065              1.5498296             -2.2500840
Ar             -5.2987860              2.5245772              3.3799670
Ar             -6.6281872             -3.8709096             -0.1212827
Ar              2.5389203             -4.6431000              0.3640972
Ar             -0.6489082              3.6356052             -2.7977249
