42
Energy:            -192.4858
Ar             -1.5868680              0.1859054              1.2536511
Ar              1.2429669             -1.9011252              2.3549905
Ar              0.1990558              0.8661712             -1.9765039
Ar              3.0090053             -1.2286994             -0.8372685
Ar             -1.0722626              3.7113139              2.3247765
Ar             -5.8080498              1.7613512             -2.8881548
Ar             -0.8072234             -1.7364061             -4.5350935
Ar              1.8324423              1.6050426              1.2517907
Ar              0.0589796              0.9628100              4.5109894
Ar             -2.7442110              2.9441558             -0.9695070
Ar              1.1796860             -2.1683186              6.1076838
Ar              4.0998868              4.5550057              0.9400467
Ar             -5.3016865              0.6285401              0.7977079
Ar             -2.0790585             -2.1648363              4.0867892
Ar              2.7144540             -0.3168862             -4.4827704
Ar              5.5384479             -3.8769353             -1.5725908
Ar             -4.7686226              4.2203346              1.8741962
Ar             -4.6360520             -1.2537776             -5.1830252
Ar             -3.6269667              1.3605574              4.1266703
Ar              3.6989950              0.2141612              4.2255665
Ar             -2.3386744              1.8065502             -4.6342334
Ar             -3.1445599             -0.5499536             -1.9382116
Ar             -0.4646164             -6.2545795             -1.6695126
Ar             -1.7906273              5.4084538             -3.5807362
Ar              2.4445503             -4.8393720              0.2529716
Ar              6.1470249             -0.3435715             -2.6544800
Ar              3.6572309              2.3375908             -2.0090195
Ar              2.3407013              3.8644745              4.1775479
Ar              2.1010229             -3.8761713             -3.3631379
Ar             -3.3435547             -4.0943175             -2.8281521
Ar             -2.0467987             -0.2683944              7.3151069
Ar             -0.3978670             -2.6512014             -0.8650320
Ar              4.9131386             -2.6533924              2.0590386
Ar             -2.2278590              6.5113995              0.0813360
Ar             -0.8555427             -5.0307600              1.9951513
Ar             -3.7814879             -2.9120506              0.8166084
Ar              1.1521136              3.2398258             -4.6470369
Ar              0.7357760              4.4046236             -0.9687597
Ar              1.1317378              6.7121156              1.9543233
Ar             -6.4896730             -1.9810620             -1.8195392
Ar              5.5012177              0.9347738              0.9570451
Ar              2.4819644             -4.9933766              3.9881699
