42
Energy:            -185.5357
Ar             -0.3711484             -0.4391970             -0.8373166
Ar              2.0528581             -2.4546930              1.1866258
Ar              1.3851011              2.2613119             -2.7611577
Ar             -1.8300613              2.9295029             -1.1463943
Ar              2.0929366              4.7209452             -0.0980678
Ar             -1.4391657             -3.4438345             -2.7639828
Ar             -1.6285026             -3.3291144              1.0093436
Ar              2.1355755             -2.5687876             -2.4822753
Ar              2.4122012              1.1380065              0.7240006
Ar             -0.4505189              2.8851382              2.1340320
Ar             -3.3689900              0.4639854              1.0506733
Ar             -2.0023693              2.7493815             -4.7559533
Ar             -3.4626786             -0.2736610             -2.7712499
Ar             -4.0461715              4.0913938              1.6899299
Ar              5.0431223             -1.0361725             -0.7793919
Ar              4.9494469              2.6549441             -1.5416246
Ar              4.4470620             -4.8005278             -0.3664256
Ar              1.8532499              5.3910554              3.5637078
Ar             -3.3174328             -6.0333402             -0.9296201
Ar              0.7718072             -5.5741535             -0.6483789
Ar             -3.9145387              5.8676444             -1.8212519
Ar              2.3631350             -2.2902018              4.9159278
Ar             -0.9141127             -4.1271850              4.5122527
Ar             -0.2243493              5.7192572             -2.9453421
Ar              3.9613000              0.0945147             -4.2694834
Ar             -0.0962345             -0.5232709             -4.6667336
Ar             -1.1430188              6.2826555              0.7752180
Ar              5.5989830             -3.3293573             -3.7203692
Ar             -1.8379533              5.4211741              4.4695689
Ar             -4.4518826             -5.3051758              2.6043277
Ar             -5.0280748             -3.7187605             -3.6448500
Ar              4.9428210             -0.4799899              2.8969617
Ar             -1.2034815             -7.0349256              2.1149483
Ar              4.8521820              3.3853576              2.2641650
Ar             -5.5536233              2.4481931             -1.3584626
Ar             -5.0391713             -2.6204250             -0.0835801
Ar              2.2270264             -5.6562027              2.8994543
Ar              2.8858225             -6.0042614             -3.7084138
Ar             -2.9950469              1.7614005              4.5894906
Ar             -0.4221920             -0.5951119              3.1150385
Ar             -3.8872998             -1.8737552              3.8179591
Ar              2.2226459              1.6493690              4.4596843
