42
Energy:            -189.3110
Ar              0.2923575             -0.7637408             -0.4398096
Ar             -1.7288672              1.7497603              1.3832673
Ar              1.8640772              2.4963759              0.7217864
Ar              3.7651103             -0.6689111              0.8004460
Ar              0.3378309             -6.7883434              0.7763269
Ar             -0.6575511             -3.2706473              2.1248460
Ar              4.4718990              4.1057153             -1.3703804
Ar              0.9457942             -0.1088414              3.1493293
Ar              5.8459452             -3.7045576              0.9628402
Ar              5.3955693              2.4831984              1.9828750
Ar             -2.1131555             -0.7378574             -3.2395062
Ar              2.8431219             -3.4388408              3.3078772
Ar             -3.2612971             -1.4333005              0.1900307
Ar             -2.6208768              5.0422320             -0.2871427
Ar             -1.3448223             -4.1392663             -1.4302741
Ar              2.8743556              0.8845327             -2.5209177
Ar             -2.9538960              2.5537013             -4.8992336
Ar              2.2588174             -3.8788465             -0.3392764
Ar             -5.4864902              0.8898648              2.0046303
Ar             -0.2010847              4.9795592              2.5852485
Ar              1.0172917              5.7119550             -0.9679660
Ar             -5.1405002             -4.4615375             -0.9760490
Ar             -0.5325354              2.4608777             -2.0786584
Ar             -4.1940910              1.8695974             -1.3946276
Ar              3.4576558              5.7326231              1.9098198
Ar             -3.1432013             -5.9313149              1.7513981
Ar              0.4558615              0.8818937             -5.3969066
Ar              2.0011079              4.1356544             -4.2522618
Ar              6.4603634              0.8822676             -1.2643603
Ar             -5.7944452             -1.2168706             -2.6659340
Ar              0.1639819             -2.4577549              5.8338307
Ar              1.2295087             -2.3952479             -3.6515076
Ar              4.4435404             -0.2439799              4.4662815
Ar             -1.1114981              2.3306134              5.1054358
Ar             -3.0259758             -4.3015023              5.1033114
Ar             -3.6380221             -3.9070876             -4.4051626
Ar             -3.8939946              4.1195531              3.1990093
Ar              2.5251173              3.0344419              4.3908428
Ar              4.8534134             -2.3018316             -2.4788182
Ar             -2.7336680             -0.7863912              3.9107179
Ar             -5.5252840             -3.0185336              2.5791455
Ar              0.2449912             -6.0267594              4.4405952
