42
Energy:            -193.8959
Ar              0.1666343              1.3057733              0.1025703
Ar              0.7597266             -1.1537231              2.7506007
Ar             -1.8650230              1.4848719              3.0761491
Ar             -0.6971643              4.6506654              1.2097976
Ar             -1.4428537             -0.0448244             -2.8216008
Ar              3.5486918              0.2164833              0.6921319
Ar             -5.4396816              2.3838439              2.7365500
Ar              5.7831714             -0.2004188             -2.2308850
Ar              1.7661027              2.4174766              3.1450991
Ar             -5.0566768              0.7046208             -3.3288200
Ar             -2.8049865              4.8139669              4.3550692
Ar              2.2728426              0.9797814             -2.8480992
Ar              4.4074671              4.9728836              2.8394162
Ar              1.0439146             -2.0769511             -0.8522092
Ar             -1.7397228             -3.8428592              3.3323476
Ar              0.6370506             -0.6168320             -5.8511501
Ar             -3.3153155              2.2224480             -0.3663578
Ar              2.7222878              3.8523280             -0.3432657
Ar             -1.2969544             -0.9935602              5.8363996
Ar             -3.1121205             -1.5276551             -5.8018996
Ar             -4.4306540             -1.1685069              3.6822773
Ar              1.6812281             -4.6305314              1.8166743
Ar              4.5407441             -3.2491618             -0.2877732
Ar             -2.2965174             -1.3073158              0.6300389
Ar             -3.9699106              1.6776773              6.1754824
Ar             -4.3353632              5.5560203              0.9692321
Ar              5.2867119              1.3649467              3.7910173
Ar             -1.4481580             -4.8138807             -0.3333388
Ar             -3.9907205             -2.7825379             -2.3128279
Ar              0.9172274              5.7836989              4.4115716
Ar              3.1930984             -2.5563662             -3.8113016
Ar             -5.8735280             -0.4689917              0.2013499
Ar             -0.5290011              3.6751616             -2.5774428
Ar             -0.5760822             -3.5768553             -3.8269870
Ar              2.4153221             -0.0227441              5.8897005
Ar              7.0826318             -0.8897446              1.2900712
Ar              1.9659994             -5.5801042             -1.8442795
Ar              1.3868773             -3.6613313              5.4800072
Ar             -0.2809754              2.6505635              6.2549128
Ar              4.2450488             -2.2826559              3.3909110
Ar             -4.8532554             -4.0044515              1.1762076
Ar              6.2512790              2.7068772              0.3233333
