42
Energy:            -186.8793
Ar             -1.6822905              0.7161242             -0.4234956
Ar              3.7667978              1.0540968              1.4308859
Ar             -2.5659281              1.9091853              2.9555540
Ar              0.5021646             -0.0150495              2.9368452
Ar             -0.2478440              4.3680155             -2.1286323
Ar             -0.1171564             -1.6318825             -2.9391946
Ar             -3.3414679             -2.5025700             -1.4252011
Ar              1.6375133              1.2772161             -1.4842855
Ar              3.3764607             -1.8542568             -0.9571991
Ar             -3.0644585             -1.5550062              2.1384994
Ar              2.3884015             -4.1573051             -3.7341335
Ar              2.9361774             -0.2936751             -4.5486056
Ar              3.2665975              4.2976779              3.4306281
Ar              0.2285445              2.7169368              5.3450684
Ar              1.4307278             -1.6505696              6.3560770
Ar             -0.3282140              1.6327227             -4.6792544
Ar             -3.2566472             -0.6857699             -4.7374920
Ar              0.3898875              3.3357185              1.3935827
Ar             -0.4834139             -3.6456609              3.9436903
Ar             -2.1256630             -4.2204901             -4.8435076
Ar              0.0562386             -2.5827742              0.4886147
Ar              3.1295967             -2.5171254              2.8413993
Ar             -3.1269695              4.3348842              0.2809558
Ar             -5.2417056              1.0873195              0.4588048
Ar             -4.2276832             -6.0521913             -2.1524022
Ar             -3.6135965              2.5621761             -2.9448690
Ar              2.9548063              3.4889068             -4.1481203
Ar             -2.0493146             -0.5313044              5.6709315
Ar              3.6174284              0.9553532              5.0760232
Ar              3.4735702              4.3351581             -0.4767317
Ar             -5.5437525              0.1967296              4.3287604
Ar             -1.9013475              5.4277174              3.7247815
Ar             -2.7318448             -5.1361034              1.3035272
Ar              0.1357323             -1.7330356             -6.5976583
Ar              5.8420014             -2.4250853             -3.7047933
Ar              2.6158126             -5.2934879              0.2116466
Ar              3.7860190             -2.9645140             -7.0018541
Ar             -4.1804440             -3.6194792              4.9351476
Ar             -0.5554708             -5.3858774             -1.7564947
Ar             -3.5286416              2.9577076              6.3160372
Ar              5.3171813              1.2217492             -2.0572873
Ar             -5.5962298              3.9229338              3.1765489
