42
Energy:            -192.0011
Ar              1.4395543             -0.7387502              3.2207360
Ar             -2.1181819             -0.1557861              3.0069772
Ar              2.0407288              4.9033977              5.8970929
Ar              0.1036053              0.9854577              0.2534657
Ar              3.2855666              1.3624786              5.5513765
Ar             -0.4116575             -2.6575397              0.7901522
Ar             -5.4188151             -0.2793583             -2.5715945
Ar              2.7319411             -2.4528758              6.1606757
Ar              2.5847473             -4.1501837              2.6679436
Ar              0.2378357              2.6573337              3.5798680
Ar              5.2899256              4.1483535              3.9943423
Ar             -4.0393005             -2.0655744              0.5095572
Ar             -3.5439903              1.6215065              0.0349265
Ar              2.9914342             -1.3643851              0.0014966
Ar             -3.9668964              0.6349104              6.1031754
Ar             -1.5203859              3.5507327              6.7097478
Ar             -2.6876437             -5.3186397              1.9824643
Ar             -1.7671449             -0.9819941             -2.2715656
Ar             -6.4152832             -4.7004958              1.6612202
Ar              2.2273346              5.4527941              2.1065748
Ar             -4.4276830             -2.7653821              4.2460262
Ar              1.1456679             -3.3927428             -2.5304791
Ar              5.0543874              1.3286570             -1.5554627
Ar             -0.2544624              0.0233500              6.3558971
Ar              4.1770648             -4.7970537             -0.6818957
Ar              7.0660484              1.5549767              1.7017692
Ar             -1.0011168              6.1810319              3.9919791
Ar              5.0462577             -1.2174599              3.2666265
Ar              1.6986681              0.3522069             -3.0566011
Ar             -1.2877540              2.7220188             -2.7793070
Ar             -5.8182308              0.4245733              2.7854141
Ar             -1.1292847              4.4820538              0.6030062
Ar             -0.7144023             -3.3723421              4.5459521
Ar             -7.7389721             -1.4508610              0.1857600
Ar             -6.0126511             -3.9871394             -2.0557304
Ar              3.3875875              1.9189581              1.7367139
Ar              6.6523173             -1.8297310             -0.0929356
Ar              2.0875053              3.7187256             -1.2897374
Ar              0.6389959             -6.1320576              0.1156730
Ar             -2.3513183             -4.6591299             -1.7200976
Ar              5.4391184              4.6749588              0.2201727
Ar             -3.4376725              3.3182410              3.4161157
