42
Energy:            -187.3963
Ar              0.2053172              0.8780437             -0.7819936
Ar             -0.5600658             -2.7754083             -1.1226758
Ar              1.4997777              1.1553403              2.6088574
Ar             -2.0882134              1.7910140              2.0457561
Ar             -3.0516225              2.6425240             -1.4274025
Ar              2.2956677             -1.9046441              0.8891600
Ar              2.4703632             -1.4176607             -2.7147088
Ar             -0.9985754             -1.5588502              2.1917048
Ar              0.7787194              1.5746692             -4.3694145
Ar              3.2697537             -4.5681719             -4.7774324
Ar             -1.8497741             -3.6781063              4.9735906
Ar              2.6688247              1.1656703              6.0467994
Ar             -0.2202663             -3.3238202             -4.7150153
Ar             -0.2099692              4.4735071              0.5045276
Ar             -3.9250098              2.6085976              5.1498618
Ar             -0.9883598              0.2481083              5.3786846
Ar             -0.6674396              4.8858394             -3.2695522
Ar              1.7541327             -2.2856091              4.5558975
Ar              0.4396490             -4.9614240              2.0010966
Ar             -2.1855263             -0.4337472             -3.4185347
Ar              4.8467214             -0.5697822              3.1718067
Ar              4.4919282              1.4613727             -4.0105895
Ar              4.2516988             -4.4910211              2.4960438
Ar              3.3151857              4.2090676              1.8474692
Ar             -0.9970350             -6.3673662             -1.3818330
Ar             -3.1773396             -4.3352479              1.1286089
Ar             -3.2511939              6.3615940             -1.0155873
Ar             -2.8044908              2.6521671             -5.3346086
Ar             -3.6879531             -3.8328691             -2.6733416
Ar              4.1386567              1.0074567             -0.2229764
Ar             -0.1689884              3.9210186              4.3890101
Ar             -5.6419361              2.1858639              1.5033388
Ar              2.6313104             -1.1144954             -6.3549487
Ar              5.8742545             -1.9618432             -4.3233151
Ar              2.5513432              3.8308316             -1.8739958
Ar             -3.3551886              5.2084141              2.5176007
Ar             -4.2934598             -0.8455992              3.6269798
Ar             -1.0570134             -0.3897683             -6.9907169
Ar              2.5644183             -4.9374550             -1.1404392
Ar             -3.7689730             -0.8225140             -0.1236530
Ar             -5.4758696             -4.3841927              4.0972802
Ar              5.5471277             -2.5212423             -0.6134004
