42
Energy:            -187.8571
Ar              1.1585287             -0.7379922              1.1914270
Ar              0.4732402             -4.3418684              1.6434895
Ar             -1.9410389              1.0609313              2.0676705
Ar             -1.9063265              0.5098020             -1.5388647
Ar              0.6380800              2.7687483              0.0467976
Ar             -0.0874206              5.5584771             -2.1814634
Ar              3.7021963             -2.2620444             -1.1210096
Ar              1.5494678              0.3266910             -2.5273714
Ar             -1.8082020             -5.8856283             -0.9192525
Ar              4.1840830              0.2126625              3.2277712
Ar              0.0773354             -2.8348741             -1.7181229
Ar             -2.6746889             -2.3558661              0.6106809
Ar              4.1499858              1.4891202             -0.2181459
Ar             -5.0115962              1.8342730              0.0096110
Ar              3.5124273              5.2295257             -0.3508343
Ar             -3.4888839             -3.0848210             -2.9140818
Ar              2.9571016              3.4996336             -3.5448411
Ar              6.1211019             -2.6115299              4.6683685
Ar             -5.3432895             -5.0525850             -0.1345680
Ar             -1.0395331             -1.0765195             -4.8854206
Ar             -0.9921313              4.0405873              4.0401228
Ar             -1.4566158             -2.1053304              4.0390018
Ar             -4.6846097              0.3703860             -3.8696127
Ar              5.0403072              0.1795221             -3.6912056
Ar              4.2171060             -4.2339872              1.9022193
Ar             -0.6168443              2.6060508             -4.4490945
Ar              0.7953855              0.8378643              4.6160510
Ar              2.4382718             -2.6574587             -4.6435341
Ar              2.1664836              0.7736575             -6.1745856
Ar              0.5319921              6.3848571              1.5196796
Ar             -2.9980771             -5.3456470              2.7779347
Ar             -2.5539587              4.5310322              0.6587951
Ar             -6.1051040             -1.5098779             -0.7750311
Ar             -0.6898291             -4.9365755             -4.6398418
Ar              2.2131176             -2.6104456              4.5477661
Ar             -4.7210686              3.1965374              3.4664711
Ar              2.6973461              3.6050717              2.9568245
Ar             -2.7965521              0.9575246              5.7272046
Ar              6.6313687             -1.3500382              0.9477899
Ar             -5.0373952             -0.7190095              2.9554802
Ar             -3.6169700              3.8553649             -2.7990006
Ar             -0.1017762             -5.4853085              5.1965303
