42
Energy:            -187.3414
Ar              1.1087550              0.9052769              0.8704861
Ar             -1.3072917              0.4034549              3.4483332
Ar              1.2855253             -2.2729914              2.4857755
Ar              0.9033452             -1.5682052             -1.9205298
Ar             -0.6935589              1.8667886             -2.0789481
Ar             -1.7457000             -1.7331223              0.4147184
Ar              1.2152579              3.6350006              3.4386101
Ar              3.9991507             -1.3649545             -0.0050820
Ar             -1.8515993             -4.0345102             -2.5866174
Ar              1.5319475              4.3232562             -3.9677806
Ar              1.0441852             -3.5873236             -4.9743250
Ar             -2.2697147              3.9929899              4.8402649
Ar              1.4553345              4.4216177             -0.2504065
Ar             -1.7421390              3.3521179              1.1994951
Ar              4.4672490              2.1641567              1.4187976
Ar             -3.5844537             -5.0373310              0.6256873
Ar              3.9975092             -4.6553328              1.8472453
Ar              3.1080545              1.5352080             -2.1375242
Ar              0.2048858             -5.0031478              0.3807167
Ar             -4.7710078              1.9270020              3.0768528
Ar             -4.9660631             -1.6895015              2.2122010
Ar             -4.4419078              2.8656973             -3.4244353
Ar              4.9311610              4.7139206             -1.4968123
Ar             -3.9758986              0.9324972             -0.4055717
Ar              4.0191466              5.8302344              2.0927708
Ar              5.8516035             -1.1455186              3.1228180
Ar             -2.5423218             -0.6270661             -3.8553987
Ar             -5.0531883             -2.3796910             -1.5722432
Ar              4.1392064             -1.5779320             -3.8902962
Ar              3.6131084             -3.1524300              5.3344538
Ar             -3.7369735             -0.8083907              5.8266929
Ar             -2.0628651             -3.5058415              3.6417988
Ar             -1.5185708              2.9374562             -5.6092549
Ar              0.4967716             -6.8850467             -2.9531898
Ar              1.0621112              0.3279711             -5.0754017
Ar              3.1716791             -4.5409256             -1.8432006
Ar              2.7150379              0.4460445              4.3818613
Ar             -1.8237508              5.3217378             -2.1204322
Ar              1.0048585             -5.5914902              4.1034357
Ar              0.1585687             -1.9171534              6.0765053
Ar             -5.0363691              4.4994718             -0.0042969
Ar              0.0504669              1.7618998              6.6739605
