42
Energy:            -195.5066
Ar             -2.4643963              1.3392233             -0.5750139
Ar              0.1186598              5.9529629             -0.7803211
Ar              0.1134865              0.1415792              1.6737473
Ar             -5.1422788              2.5797496             -2.8975749
Ar              1.0520557             -3.2837100              1.0880776
Ar             -2.4891367             -2.1633528              0.7076957
Ar              2.1272521              4.7180486             -3.7546037
Ar              6.0736425              1.8499439              0.7058400
Ar              6.5618872             -1.1108921             -1.6458254
Ar             -2.5579784              0.0850201             -4.1083674
Ar             -1.5127771              3.6596037             -3.3446722
Ar              1.0989307              2.3877303             -0.9950352
Ar              2.8093752              2.4630055              2.4500508
Ar              1.0409462             -4.6435896             -2.4003254
Ar             -0.8621883              3.5860257              1.9908867
Ar             -2.5859971             -3.4999787             -2.7890024
Ar             -5.1994603             -4.5707110             -0.2596033
Ar             -5.1966707             -0.9945024             -1.5843652
Ar             -3.5234417              4.8812813             -0.3504900
Ar              3.8252478              4.7874650             -0.3459820
Ar              2.7633218             -1.1334561              3.8110310
Ar             -1.8843105              7.1566817              2.2322159
Ar              1.0888311              1.1576135             -4.5380120
Ar             -3.1649027              0.7050253              3.1543243
Ar              0.0744329             -1.1087788             -1.7770183
Ar              0.0426788             -5.8037624              3.5936270
Ar             -3.6033407             -4.6429205              3.2050353
Ar             -5.8369699              1.9452552              0.7934383
Ar              6.0383899             -1.8059974              2.0688686
Ar              4.3220346             -4.0015963             -0.5668503
Ar             -1.5916468             -5.7416848              0.1293094
Ar              3.7609087             -4.7091774              3.1562680
Ar              0.1110233              1.5047141              5.0537409
Ar              3.3108543             -1.7654660             -3.4837822
Ar              3.2663491             -0.4701627              0.0293973
Ar             -5.8792441             -1.6666814              2.1152777
Ar              2.0359726             -6.8567097              0.5150104
Ar              0.0415216             -2.4112659             -5.3064425
Ar             -0.9122693             -2.2153624              4.2443042
Ar              1.8101326              6.0979615              2.6020018
Ar              4.3637889              1.8175988             -2.7116044
Ar             -4.2582698              4.3120546              3.3186346
