42
Energy:            -192.1955
Ar             -0.3483267              0.4787940              1.7171308
Ar              1.9028527             -2.3855516              2.1181981
Ar              1.5834186             -4.6475162             -1.0680490
Ar              0.8209612              2.6241940             -1.0798261
Ar             -1.3672096             -2.8321037              0.2857543
Ar              1.5056417              2.5473292              4.1718966
Ar             -0.8572246             -4.2327794              3.8037352
Ar              1.3770900             -0.9828852             -1.1836135
Ar             -6.1842656             -1.0784694              0.9555395
Ar             -4.3689133             -4.5598822              1.3119188
Ar              3.2615324              0.9890277              1.2096225
Ar             -3.7021504              1.6424741              1.1352433
Ar             -4.3685234             -2.4262043             -1.9946604
Ar              0.1396737             -0.8698302              5.1250225
Ar              6.6873026             -0.0956120              1.9799021
Ar              4.7066316             -2.2293014             -0.4621134
Ar             -1.9362340              0.2915996             -1.7149329
Ar             -0.7749172             -2.7016171             -3.6032874
Ar             -5.8963414              1.1172137              4.1064907
Ar              3.0913212             -2.4586146             -4.0126961
Ar             -0.9856358              4.1734441              1.8062902
Ar              3.8747147             -0.3961392              4.6103937
Ar              3.4691601              4.7800715             -2.4465969
Ar              4.1003602              1.0405993             -2.5066065
Ar              5.2414594              3.0161511              3.6803606
Ar             -3.1951767             -1.4113563              3.2305158
Ar              0.7778189              0.7112575             -4.3879218
Ar              0.2561730              6.3405329             -1.0133593
Ar             -2.2490483              2.0094298              4.6084780
Ar             -7.2266081              2.7083290              0.9187817
Ar             -2.4882650             -5.6209745             -2.1038950
Ar             -2.7003442              3.9603824             -1.5881214
Ar              2.4954555             -3.8140963              5.5459555
Ar              2.7688057              4.7019518              1.3226684
Ar              2.4624987             -5.9934958              2.4197199
Ar             -4.5893873              4.6370746              3.0474263
Ar              5.9922448              3.1624649             -0.0422867
Ar             -2.8228921              1.9570647             -4.8544494
Ar             -0.9651385             -6.6194155              1.0460463
Ar             -5.4891839              1.2462421             -2.1308028
Ar              5.3370294             -3.5164995              3.0198183
Ar              0.0438187              4.3958423             -4.2447927
