42
Energy:            -191.8291
Ar             -1.6502227             -1.6532773              0.2196992
Ar              1.9827044             -4.3863365             -2.4831592
Ar              0.1034937              1.4105833             -0.7474707
Ar             -3.4805342             -4.7701520              1.2296909
Ar              0.2053821              4.0376505              1.7729746
Ar             -2.8342531              1.7175079              1.3259163
Ar              1.9588962              4.4205036             -1.6272134
Ar             -0.1763287              2.4027680             -4.2336529
Ar              4.1078576             -4.6362245              0.6577087
Ar             -1.3988874             -2.8190766              3.7243296
Ar              0.3201841             -4.7339141              0.9340148
Ar             -5.0408519              4.6116310              0.7425274
Ar              2.0615653             -1.5712666             -0.0501912
Ar              0.4429275              2.8511274              5.3489836
Ar             -0.0325125             -1.3010735             -3.1165532
Ar             -2.6674621              0.5662892              4.8892417
Ar             -4.7004043             -1.3319077              2.3072283
Ar             -1.8293764             -4.4624051             -2.2006064
Ar              5.0961916             -2.1507320             -2.0668212
Ar             -0.3611580             -0.4498128             -6.6942800
Ar              3.0736701              0.9398570             -2.8003433
Ar             -0.1737591             -4.1022894             -5.6045221
Ar              2.3694013             -2.7504811              3.4747876
Ar             -3.0807640              0.7165268             -2.2902120
Ar              0.3384114              0.2986487              2.6981859
Ar             -5.2877013              3.5952490             -2.9843526
Ar              2.9391526             -1.9161248             -5.2360180
Ar              6.3566867              1.3049898             -1.0048173
Ar             -3.4962000              1.6188602             -5.8448884
Ar             -4.9415537             -2.3850463             -1.3585930
Ar              6.5263350              2.2614782              2.7025068
Ar              3.4740698              4.4008902              3.5928497
Ar             -2.8399363              4.2865387              3.9736616
Ar              5.2542641              4.8173711              0.1837370
Ar              3.5648669              0.7087536              4.5034860
Ar              3.2406854              1.8151993              0.9421512
Ar             -6.1699672              1.0706561             -0.2378464
Ar              0.5877598             -0.8491413              6.2665406
Ar             -4.7262128             -4.1147768              4.8181964
Ar             -1.9493897              4.3337797             -1.4018598
Ar              5.3367956             -1.1950022              1.6776997
Ar             -3.2854849             -2.0561516             -4.7814509
