42
Energy:            -191.4801
Ar              0.3900322             -0.3909560             -1.8363670
Ar             -1.6059100             -3.2776492             -2.8199432
Ar             -2.7257177             -0.9015805             -0.0708912
Ar              3.3041051             -1.0232378              0.2100977
Ar              0.2191007             -3.1048570              0.5468324
Ar              3.6053062              0.1788991             -3.4483110
Ar              0.5740136              2.4590505             -4.0777700
Ar              2.2658668              2.4735734             -0.6326462
Ar              0.2593743              0.4348496              1.7336000
Ar              2.3198978             -3.3544009             -2.6618906
Ar             -2.9078679             -0.0861522              3.5118768
Ar             -2.2958272             -1.3586079              6.9377166
Ar             -4.7059710              2.0868967              0.9882321
Ar             -5.9013772             -0.1966977             -1.8281594
Ar             -1.6278577              3.4375216              2.8004991
Ar              0.3160418             -6.4330919             -3.4273466
Ar              3.2251805             -0.1975673              3.8771935
Ar              5.3078595              1.8782198              1.4445620
Ar             -1.4726119              2.5334095             -0.8266773
Ar             -2.6704697              0.2841699             -3.6912688
Ar              0.4868777             -1.2258093             -5.3725530
Ar              3.2203193             -3.8228331              2.6746595
Ar              2.1539090             -6.1733534             -0.1302000
Ar              6.6314903             -0.4593970             -1.2943339
Ar              6.3461305             -1.6847261              2.3090329
Ar             -1.7817453             -6.0899279             -0.2865151
Ar              0.4070270              5.5360240              0.3990395
Ar              2.1688292              3.3666657              3.0019260
Ar             -4.8114256             -3.8268895             -0.9169634
Ar              5.3234045             -4.0423008             -0.5111589
Ar             -1.3746412              5.5283417             -2.9762465
Ar              5.5559821              3.1405304             -2.1633348
Ar             -4.8167670              2.8634314              4.7068416
Ar             -3.4116081              5.5708636              0.2546286
Ar              0.0480150              1.2776793              5.4048865
Ar             -4.6129073              3.3438741             -2.5971710
Ar              0.0565302             -5.9188678              3.0377124
Ar             -2.9674707             -3.6826922              2.4394853
Ar              0.1052016             -2.3274109              4.2034945
Ar              2.4706625              5.4496632             -2.8186742
Ar             -5.9666171             -1.3988503              1.7964014
Ar             -2.6215255              3.3639486             -5.8224059
