42
Energy:            -187.9139
Ar              1.7553851             -0.5325234              1.0770054
Ar              0.4956296             -1.3145503              4.4403136
Ar             -4.4524667              1.5706403             -0.0047692
Ar             -0.1205289              2.0238675              2.7452195
Ar              3.3632137             -3.2577615             -0.7923797
Ar              1.5092648              1.7915680              6.2805749
Ar             -2.0676430             -1.0586796              1.6978159
Ar              0.0962529              5.7643303              1.8459032
Ar              0.1962375             -3.9098135              1.5261130
Ar              1.9717405              3.1822024             -0.0453751
Ar             -0.1250662             -2.1985234             -1.5542978
Ar             -2.1804026              4.6189009             -0.8043959
Ar              3.9194608              0.3480708              3.8703294
Ar              2.5533171              0.2427118             -2.3888891
Ar             -1.0415946             -7.3302728              1.0764569
Ar             -3.2907215             -4.6857532              2.6641566
Ar             -0.9173569              1.2127967             -0.9074867
Ar             -3.5321386             -1.1431282             -2.3596102
Ar              0.4692119              3.4813945             -3.4547637
Ar             -3.2838282              3.8048939              2.7962211
Ar              5.1427210              4.9736844              0.4925177
Ar             -5.0189968              0.3927836              3.4802532
Ar             -3.2336154              2.3749913             -3.6237460
Ar              3.4644881             -3.2973842              3.0756979
Ar              4.3167202              3.4397601             -2.9415551
Ar             -2.8269619             -4.5713553             -0.9660604
Ar              2.7475977             -6.5304198              1.1249998
Ar              2.9640111              3.9581897              3.5006759
Ar              5.0315710              1.1132248              0.2998401
Ar             -5.4200515             -2.1988830              0.6995524
Ar              2.5536698              1.5218039             -5.9054185
Ar              6.6065403              2.8930475              3.2768208
Ar             -2.9824610             -2.2229369              5.3298960
Ar             -1.7150716             -3.6662681             -4.5460777
Ar              0.6657136             -5.7223625             -1.9838668
Ar             -0.4807823             -0.0790755             -4.4464793
Ar             -0.5297150              4.7602927              5.3416758
Ar             -1.1659303              2.6342935             -6.8163161
Ar             -3.7167379             -0.5165907             -6.1033665
Ar             -2.1840088              1.3763231              5.6901899
Ar             -0.2352963             -4.9953737              4.9705137
Ar              2.0714593             -2.9084703             -4.4265369
