42
Energy:            -192.8162
Ar              1.1309579              0.9550879              0.5007696
Ar             -0.1400931              2.7228200              3.4451878
Ar             -0.4298100             -2.3517479             -0.0139185
Ar             -2.4268410              0.4756022              1.3525930
Ar              3.0401380             -2.0674523              1.2716045
Ar              2.6289215              4.2610205              0.2488166
Ar             -4.8600283              0.1114757             -1.4555677
Ar              0.2071412             -1.0622144              3.4352979
Ar              3.3421694              1.1139139              3.3980158
Ar              2.3205683             -1.1958463             -2.2789173
Ar              1.9479184              2.6408986              6.6382581
Ar              2.1765515             -4.1577818              4.2369622
Ar             -3.4903862              3.4260009             -2.8943886
Ar             -4.0426193             -2.8528627              0.7614851
Ar             -3.8363260              2.1209000              4.3390154
Ar              6.6711020             -2.0655569              0.5404971
Ar              4.6955703              1.0475687             -0.2504142
Ar              2.4163464             -1.0532203              6.3969039
Ar             -2.7905453             -2.7694178             -2.8385758
Ar             -1.2214320              0.5967484             -2.1824396
Ar             -3.6591078              0.1953929             -5.0252298
Ar             -4.8629031              3.2184023              0.6781553
Ar              0.6605694             -4.4452646             -2.9131740
Ar             -2.9440225              5.4184028              3.0074798
Ar             -3.4091489             -1.6146862              4.2994768
Ar             -1.3589568             -4.4490043              2.9284658
Ar              5.3440209             -1.9899297              4.1664052
Ar             -6.0963753             -0.0187935              2.1554953
Ar              3.0666585              4.8411744              3.8906347
Ar             -1.2018916              3.7387602              0.0559264
Ar             -1.1456585              0.6001776              6.4451812
Ar              4.2869530             -4.2516560             -1.5464991
Ar             -0.7194634              2.5017657             -5.3746160
Ar              0.3699962              6.5948232              1.9940503
Ar              2.0438568              2.3850677             -2.8694970
Ar             -0.1076283             -1.3267958             -5.1225881
Ar             -2.0246874             -5.7392908             -0.5827905
Ar              1.5239723             -5.4509347              0.7075871
Ar              5.0742670             -5.1633912              2.0530933
Ar             -0.1008248              5.4308056             -2.9814782
Ar             -0.7254508             -3.1704448              6.4476934
Ar             -0.2520285              5.6281918              5.6963672
