42
Energy:            -192.0659
Ar              0.1511715             -0.5270896              3.0788374
Ar             -4.0128044             -3.1085996              1.0757107
Ar             -2.3705392              0.6820626             -2.2795224
Ar              0.1603282              1.5648376              0.1166265
Ar              0.1523581             -2.6654070              6.1565700
Ar              2.7244042              2.1254166              2.5698134
Ar              2.8324873             -3.0930589              3.4733224
Ar             -0.7594953             -4.1480075              2.7802244
Ar              0.1348662              3.5388020             -2.9405594
Ar              5.4662094             -0.3757651              2.9505391
Ar             -0.7258661             -1.9730264             -0.2337717
Ar              4.5283085              0.6519753             -4.2857722
Ar             -5.0279613             -0.2471219             -4.7644970
Ar              3.8449040              5.5872917              3.1520465
Ar             -3.0343585              0.4667783              1.4029205
Ar              6.1104462              3.0209129              1.3423465
Ar             -5.9032478              2.7595643              1.0752944
Ar             -2.5034809              2.5534650             -5.4584298
Ar              2.7759404              0.0370292              5.6605787
Ar             -3.2893399             -2.8952142             -2.7267856
Ar              3.4115141              2.5021112             -1.2170932
Ar             -0.9485856              3.1756449              3.1796000
Ar             -3.1126347             -1.6528239              4.4778343
Ar              2.3175635             -1.9567981             -5.9750095
Ar             -6.6009521             -4.0892632             -1.5053822
Ar              0.3439494             -3.7934754             -3.3044222
Ar              1.9182601             -4.5612580              0.0786721
Ar              2.7785584             -0.9305605              0.4332327
Ar              1.2067035              1.6947082             -6.0450582
Ar              1.1366164              5.0460285              0.5494614
Ar              5.4972143             -3.4879667              0.7721232
Ar             -5.7044374             -0.4321036             -1.0314696
Ar             -0.9476236              0.9929816              6.2547773
Ar             -1.3499594             -1.0870678             -5.4191717
Ar              3.9341928             -2.7343289             -2.6118303
Ar              1.2133141             -0.1792193             -2.8619364
Ar             -2.5652053              3.9504453             -0.2249469
Ar              1.7147536              3.6972551              5.7764033
Ar             -4.2470917              1.9990038              4.5394720
Ar             -1.6970931             -5.5838614             -0.6188850
Ar             -5.2324230              2.9744901             -2.7141627
Ar              6.1251284             -0.0961996             -0.8727720
