42
Energy:            -191.5472
Ar             -1.2992032              2.7171754              0.5283187
Ar             -0.3844032              3.8911954             -4.5595091
Ar             -0.4849224              0.4669271              3.4192065
Ar              1.2510959              0.1635153              0.2651224
Ar             -3.9371718              5.3693149              0.8114007
Ar              0.6090294              0.4286705             -5.9891583
Ar              3.9011402              2.4086444              5.4575540
Ar             -4.9019834              1.6979531              0.6922660
Ar             -3.4989666              3.3912981             -2.4187320
Ar             -3.0913591             -4.0319869              2.2019339
Ar             -0.8567006              0.7687175             -2.6349404
Ar              1.8100949              3.2131380             -1.5625730
Ar             -4.0582126             -0.6035355              3.6401403
Ar              1.3920157             -0.2429345              6.5059157
Ar             -3.1197515              3.0929722              3.7590956
Ar              3.7262767             -2.4906487             -0.0429931
Ar             -0.8349508              5.8908416             -1.3259778
Ar             -1.3083977             -2.6629765              5.2849476
Ar              4.2504064             -0.4982620             -6.4134371
Ar              0.4632849             -2.8803300              2.0093199
Ar              2.3839740             -3.6757437              5.0716055
Ar              0.2344886              3.4028429              5.5419107
Ar              2.8441964             -0.1955176             -2.9643865
Ar              2.2977179              6.3691027             -3.4611191
Ar              4.7065863              1.3201810              0.0850806
Ar             -4.4345946             -0.2945222             -2.5497042
Ar              2.8588435             -5.6816266              1.7619086
Ar              2.0716852              3.0720028              2.2682457
Ar             -2.2481598             -0.8871219              0.4059777
Ar             -0.7710341             -5.6459886             -3.7697924
Ar             -0.5757469              5.7172019              2.5669598
Ar              1.7836887             -3.1140183             -5.0605237
Ar             -3.3152120             -3.8310688             -1.6054245
Ar              0.2428088             -2.6798630             -1.7139297
Ar             -5.8354704             -1.9816249              0.5625450
Ar              2.6382695             -5.4661421             -2.0756260
Ar              3.2726622              2.9477799             -4.9828175
Ar             -1.9064743             -2.1386772             -4.7221062
Ar              3.2481879             -0.5284814              3.2124077
Ar              2.5070489              6.3019198              0.3979526
Ar             -0.5500665             -5.8815530              0.0303072
Ar             -0.3272066             -6.0575448              3.8332931
