42
Energy:            -185.4508
Ar             -0.6536119             -1.2384830              1.6916205
Ar             -4.1090556             -0.7195889              2.8927154
Ar             -1.9400841              0.1195920             -3.2127838
Ar              0.9751839              0.7447456             -1.1499242
Ar             -2.3500475              1.6424616              0.1956661
Ar              1.7498087             -3.2997020              3.7434226
Ar             -0.1309975             -2.7053509             -1.6041412
Ar              0.7545597              2.9175722              1.7276944
Ar              1.3447850             -0.8094554             -4.3778840
Ar             -0.0402368              2.6454947             -5.0827423
Ar              0.6175918              0.5813005              4.5816243
Ar              0.8601541              4.4300959              5.0745651
Ar             -2.4106857              2.5502530              3.8480122
Ar              2.7915796             -3.9084219              0.1999998
Ar             -4.5806491             -2.1424987             -4.2489107
Ar              3.4765097              2.1109047             -3.8105833
Ar              2.9164023             -0.3917312              1.7539683
Ar              2.6732316             -4.1317122             -3.6765959
Ar             -2.7339463              3.8108999             -2.7618763
Ar              0.9352464              4.3238090             -1.8095813
Ar             -3.6106442             -1.7718266             -0.5892320
Ar             -1.8554197             -3.4463610              4.4803798
Ar              4.0457119              2.6168103             -0.1125004
Ar              5.4928261             -2.9328197              2.5864641
Ar              4.0185756             -0.8871429              5.3973672
Ar             -1.2681354             -0.4218898             -6.9668003
Ar              4.1240624             -1.0450465             -1.7614876
Ar             -1.0613455              2.5805038              7.6037022
Ar             -0.6748901             -4.9840571              1.2411648
Ar              2.6132643              1.9005874              7.4261513
Ar             -4.0985849              1.7288607             -5.6771524
Ar              0.7135425             -1.9497462              7.1818990
Ar             -5.6665786              2.4362071              1.5549926
Ar             -2.9473134             -5.1261238             -1.9393336
Ar             -1.1401515             -3.5888521             -4.9874807
Ar              4.8061111             -1.3042757             -5.4683624
Ar             -5.3720435              1.1382774             -2.0967930
Ar             -4.3281577             -4.4474334              1.8096409
Ar              3.8671002              2.5429215              3.8141677
Ar              2.3827095              0.9334092             -7.4383452
Ar              1.7957947             -2.9017556             -7.3390199
Ar             -2.6854037             -0.3927754              6.2957427
