42
Energy:            -193.8141
Ar             -2.2058225              0.0199351              2.3671565
Ar             -1.6312072             -5.1879859              3.1098872
Ar             -1.5528947              2.9566462              0.1295019
Ar             -0.6268187             -0.3954738             -0.8696178
Ar             -3.8509657              0.4525879              5.7146265
Ar              1.7651009             -4.6023241              4.6999710
Ar             -5.3280096              2.8035341             -3.4577292
Ar             -0.2975163              1.6505913              5.1503325
Ar             -1.0425260             -2.0789640              5.2294195
Ar              3.6256839              3.9521845              0.9513907
Ar              0.5445181             -2.4591615              1.8677896
Ar             -2.8030165             -3.0388631              0.2381779
Ar              0.3683716              4.6473407              2.8547272
Ar             -2.6426271              5.3073538             -2.4872140
Ar             -3.1969704              3.4474330              3.4487651
Ar              1.0882579             -0.7802539             -4.0559741
Ar             -4.4442141             -2.6537769              3.6137044
Ar              0.7411444              5.7662337             -0.7650525
Ar              1.6522441             -5.8965993              1.1175830
Ar              1.6290405              2.2729519             -1.7321289
Ar              0.6131588              4.6089680             -4.4178217
Ar             -5.1370811              3.8490631              0.1920274
Ar              0.4173033             -3.7698967             -1.7508783
Ar             -5.0288080             -5.7546788              1.4755162
Ar             -2.6148633             -2.0173347             -3.4571675
Ar              2.5185245             -0.8853042              4.6386340
Ar              3.4718175              2.0093331             -4.9221316
Ar             -4.1744804              0.3652340             -0.8749202
Ar              1.2841088              1.1965127              1.8185426
Ar              4.0961657             -4.4731956             -1.4824766
Ar             -5.8162373              0.8177848              2.4729246
Ar              6.5905938             -1.7695774             -0.4671620
Ar              4.9373460              0.5358771              2.0513312
Ar              2.9100543             -1.0654745             -0.6568535
Ar              3.2567072              2.8429416              4.5622109
Ar              4.7932230             -1.4270337             -3.8138337
Ar             -1.7629918             -6.5475698             -0.4212990
Ar              4.1923063             -3.2048693              2.1230025
Ar             -1.7137274              1.7893033             -3.5534643
Ar             -6.4538619             -2.3271491              0.4212217
Ar              5.3071861              1.6446652             -1.5772953
Ar              3.9737211              5.0468421             -2.6651556
