42
Energy:            -185.7517
Ar             -1.6663645              0.3981842             -1.5090037
Ar             -0.9034919             -1.6259511              1.2543276
Ar              1.1961438             -1.7423843             -2.2492774
Ar              0.9752342              1.3305333             -4.3052828
Ar             -0.0439985              2.1264827              1.6561548
Ar              2.3200345             -0.6248507              2.5363262
Ar             -1.9930310             -3.4490321             -1.7539609
Ar             -4.5986330             -2.1849416              0.4514392
Ar              1.4416538             -4.3429748              0.2586591
Ar              2.3778149             -1.1834344              6.2096938
Ar             -0.8057765             -0.0271988              4.6130554
Ar              0.2827168              5.6494964              3.0597781
Ar              0.4498396             -3.5245107              3.9934904
Ar              2.4797319              1.2561179             -0.7545416
Ar             -4.7544830              2.3614292             -1.2954601
Ar             -0.2065920              3.6605578             -1.6729930
Ar              4.7012022              2.1421928              2.1195845
Ar             -1.4388121             -1.3738605             -4.9053472
Ar              3.2943844              3.9810157             -3.2179792
Ar              2.6466926              4.7745888              0.3993413
Ar             -2.7375976              4.5618004              0.9772966
Ar              4.4088281             -1.9191136             -0.1851434
Ar             -3.5036318              0.9499531              2.0215465
Ar             -3.3372278             -2.6085608              3.9806552
Ar             -3.1471571              5.5921578             -2.6950652
Ar              4.4219245             -0.1399526             -3.5528956
Ar             -2.6861503              2.2559637             -4.4932500
Ar             -2.1786911              3.3812319              4.5910468
Ar              3.8303245             -4.1146049             -3.1693025
Ar             -1.1861796             -2.7136781              7.2059827
Ar              0.2570054             -4.7936679             -4.3190743
Ar              3.9778065             -3.9792864              3.0334979
Ar             -2.0401884             -5.1666018              1.5546133
Ar             -0.0331999              4.9677175             -5.0771356
Ar             -3.6593750             -4.3699424             -4.9351263
Ar             -4.6852740             -1.0050957             -3.1448093
Ar              1.9128474              2.5000002              4.7445498
Ar             -0.2911474              7.1121628             -0.4427349
Ar              4.0092086              5.4868160              3.8268778
Ar              2.1462380             -1.9437265             -5.9058562
Ar             -1.9985753             -5.9849456              5.2531560
Ar              1.0735110             -6.9823404              2.9307174
