42
Energy:            -186.2835
Ar             -0.1475600             -0.1684708              0.9822162
Ar              0.8669417             -3.5266703             -0.1397996
Ar             -1.7391858             -1.6293032             -2.0359281
Ar             -0.5428411              2.1935438              3.7246120
Ar             -2.7163068              1.7691323             -0.8289485
Ar              2.9118114              1.7437022              2.3528392
Ar              3.1630406             -0.5886651             -0.5509590
Ar             -5.9172322              2.7141550              0.7355536
Ar             -5.1807803             -0.9966939             -0.5856110
Ar             -4.1780569              0.4870013             -3.9693595
Ar             -3.8032054              3.9517915              3.7174708
Ar             -0.7103712             -5.0929326             -3.1599404
Ar              0.5870330              1.2520805             -2.4675761
Ar              2.4573133             -1.9487131              2.9395139
Ar              2.2414089              4.2112111              5.1597091
Ar             -2.5516921             -3.0000422              1.3633196
Ar             -3.5736373              0.3917920              2.5238436
Ar              0.2578626              3.4809404              0.4196141
Ar              3.8971849              0.6717103             -4.1340390
Ar              3.0470420              5.5249349              1.7318445
Ar              0.1571261             -4.8947834              3.2618137
Ar             -1.2847281              4.4513099              6.5797329
Ar              3.6120824              3.0841825             -1.1514123
Ar             -1.1974073              4.4881559             -2.9301258
Ar              4.5193537             -3.9609990              0.5709635
Ar             -0.8246692             -0.2154529             -5.5428362
Ar              1.6091345             -2.1642214             -3.4962934
Ar              5.8707459             -0.6261820              1.9597138
Ar             -0.9480773             -1.4883554              4.4319662
Ar             -0.5260214              5.9082494              3.1307373
Ar             -3.0702489              1.1023561              6.2193163
Ar             -3.2931095             -3.0551845             -5.1009553
Ar             -3.0313637              5.2966062              0.3210194
Ar              5.4270127             -2.5014943             -2.7522942
Ar              2.1692422             -6.9200606              0.7475371
Ar             -1.5408021             -6.4321215              0.2300313
Ar              0.2927558              7.0560554             -0.4635117
Ar              3.9033628             -3.6457295             -5.9852312
Ar              3.0296659             -5.4542157             -2.6346006
Ar              0.1512441             -3.7445422             -6.5553075
Ar              1.9776804              0.4663397              5.8153430
Ar             -4.1595555             -4.4753351             -1.7063488
