42
Energy:            -185.2172
Ar              0.0560364              0.7907526              1.5307372
Ar              3.0374166             -1.0277450             -0.3255736
Ar             -2.0225751              3.1893405             -0.4942563
Ar              1.6245616             -2.3773818              2.6492910
Ar             -3.7736054              1.2683313              2.2161872
Ar              0.4886263              0.8705227             -2.0393177
Ar              1.2930933              0.9460272             -5.6595124
Ar             -0.4822199             -5.3314807              1.7543311
Ar              5.4149416             -3.1064545              1.5284381
Ar              6.4766817              0.2706632             -0.2033707
Ar              4.3805189             -2.9250505              5.1507975
Ar             -0.4103099             -3.1259347              5.5678469
Ar             -2.1860093             -2.0608101              2.4028426
Ar             -6.1453822              1.5308426             -0.8129390
Ar             -1.5605335              2.9226664             -4.2621282
Ar             -2.9724437             -0.3026083             -0.9627424
Ar              3.3244055              2.5337449              0.1009470
Ar             -1.4391150              0.6479094              4.9617793
Ar             -4.6643509              1.0344732             -4.1692189
Ar              2.0481816             -2.2474037             -3.6924370
Ar             -1.1204282              6.2146691             -2.6315518
Ar             -0.2046473             -2.5604344             -0.7410081
Ar             -5.2365024              4.4901103              1.2558516
Ar              1.9241941              4.0487145             -3.0935714
Ar             -5.8179886             -1.6550243              1.2702201
Ar              3.0330428             -5.7831769              3.0973189
Ar              4.1531052              0.9118469             -3.2272284
Ar              4.3440471              0.2342148              2.9067660
Ar              1.9825546              3.0823128              3.6528460
Ar             -3.5140198             -4.1255673             -0.4554969
Ar             -5.9090292             -2.0298968             -2.4844616
Ar              5.5467992             -2.7972714             -2.3208379
Ar              7.7452997             -0.0768046             -3.7652155
Ar              6.7283858             -5.6724780              3.9516904
Ar             -2.4765893              6.8634919              0.7429390
Ar              2.7246572             -4.7410539             -0.5159367
Ar             -4.6527404              4.5848626             -2.5865548
Ar             -7.4401199              1.5931083              2.7054644
Ar             -1.6022918             -1.2448648             -4.2450360
Ar              0.8857796              5.1942109              0.5053034
Ar              2.0156613             -0.1338480              5.7430839
Ar             -1.5918811              4.0527845              3.1295996
