42
Energy:            -186.2532
Ar             -0.5568229             -0.2054744             -0.2658251
Ar              0.3816498             -3.0163925              1.6020566
Ar             -0.7704579              2.9486344             -1.9558069
Ar              0.8774715              2.8026196              1.2327315
Ar              3.4489340             -2.3273432             -0.8372717
Ar              0.1722354             -3.3575100             -2.0936272
Ar              1.3486103              2.5376400             -4.9152221
Ar              2.8336053             -0.2013968              2.0813314
Ar             -0.5217699              0.3392457              3.4569609
Ar             -2.2438554             -4.3825209              3.7684703
Ar             -0.9370753             -0.2423205             -3.9029797
Ar             -0.9799034              6.2647032             -3.3943873
Ar              1.0560878             -2.5638739              5.1652907
Ar             -1.5827608             -5.7855292              0.1705481
Ar              3.1879727             -4.8295162             -3.7317057
Ar             -2.6287936              3.0331304             -5.0652351
Ar             -2.5504653             -1.4279775              6.0029794
Ar              2.2296821              5.0624875             -1.3513846
Ar             -1.0834942              5.8294384              0.4641141
Ar             -3.5529514             -1.2026641              2.2236504
Ar              2.2622370             -5.8023517             -0.1070981
Ar             -4.0318034              4.6956874             -1.5865779
Ar             -3.8289278              1.8553490              4.6324130
Ar             -0.3343222             -3.6019774             -5.6691446
Ar             -4.0228312             -1.9738388             -4.8013358
Ar              2.3793121              2.6020584              4.5816127
Ar              2.5370391             -1.2253813             -4.3899938
Ar              4.5049500              3.1326371              1.2089770
Ar             -0.6250068              1.7665893              6.8442627
Ar              3.8447063             -3.7676365              2.7199220
Ar              2.4600600              6.1228342             -4.9556612
Ar             -1.0228091              4.2560984              3.9842554
Ar             -2.9545818             -5.3455716             -3.4668076
Ar              0.9856888             -6.1943465              3.4142191
Ar             -2.7838318              2.3430577              1.1249846
Ar              2.1734821              5.9514936              2.5159750
Ar              2.6124602              1.2442543             -1.5945503
Ar             -5.0434727             -4.6454403              1.2893186
Ar             -4.3224742              5.3888270              2.4323374
Ar              0.2709800             -7.0395824             -3.0266367
Ar             -3.2416136             -2.5342050             -1.1593533
Ar             -3.9649390              0.9432616             -2.1138904
