42
Energy:            -189.9920
Ar             -0.3619694              0.9698028              0.7313330
Ar             -2.1392535             -2.0142554             -0.4312426
Ar              3.3176069             -3.7903302              2.2371149
Ar              0.0325915              0.8384546              4.4494019
Ar              1.6213617             -1.8522549             -0.7345895
Ar             -3.4545394              2.9939898              1.0661191
Ar              0.0057380             -2.2391031              2.4842856
Ar              5.0166841              1.8957852             -1.9731257
Ar             -3.0859290             -0.3598299              2.8019989
Ar              2.5762325              3.0427953              0.5430100
Ar              5.3229803             -1.3122582             -0.1056173
Ar             -2.5468962              1.2961036             -2.2383469
Ar             -6.2186929             -2.2747024              2.9347897
Ar             -3.0052045             -4.2673016              2.5096789
Ar              2.8832606             -0.0932679              2.3293461
Ar              5.2146394              0.0662653              5.1503543
Ar              1.2658496             -4.6118006             -3.4305009
Ar              2.7548677              4.9337391             -2.6630663
Ar              0.1553822             -5.1303887              0.2235404
Ar             -0.2265244              4.1010767              2.7686804
Ar              1.7182549              6.6367000              0.7074036
Ar             -5.3547500             -0.1047010             -0.1343848
Ar             -1.6110123              0.7395275              7.7365031
Ar             -1.7137211             -2.4436066              5.6876183
Ar             -6.2967845              1.5612506              3.1347658
Ar              1.3333081              1.3887370             -2.5791666
Ar              2.1170410             -2.1607410              5.4926133
Ar             -0.5969693              4.2555381             -1.0750244
Ar             -0.6293357             -1.5147295             -3.8007950
Ar              5.4076922              5.3106320              0.0393319
Ar              0.3492249             -5.4288128              4.1650002
Ar              3.1106569              3.1215518              4.2262826
Ar             -4.4057472             -1.7796916             -3.4255034
Ar             -3.1177202              2.7932848              4.8406465
Ar             -2.3881856             -4.9192429             -2.6459586
Ar             -4.8611281             -0.4020485              6.0549819
Ar              3.7021090             -1.4501721             -3.6644772
Ar              4.1877343             -4.6528602             -1.2578894
Ar              5.9321448              1.9582905              1.8148553
Ar             -5.3521962             -3.8991102             -0.4109671
Ar             -2.3080618              6.7075085              1.1629630
Ar              2.2621239              1.1199372              7.3740492
