42
Energy:            -189.1613
Ar             -0.9528837             -0.3769976             -0.6115405
Ar              0.8008447              0.0283356             -3.7522120
Ar             -3.8221975             -0.5831139              1.9231467
Ar             -0.1748897             -0.6391202              3.0726420
Ar              2.1118789              1.4169720              0.5948767
Ar             -3.7189467             -2.4825185             -1.6341413
Ar             -2.7213361              0.8657084             -3.8842968
Ar              3.8234763             -4.5922025             -1.4220700
Ar             -4.1377110              1.9990845             -0.7468593
Ar              2.0109316             -2.2927561              0.8019793
Ar             -2.5382826              1.1891881              5.1830979
Ar             -1.4814325             -3.4025647              1.2601530
Ar              3.8466201             -0.8910705             -2.0539237
Ar              4.8957125              2.1520216              2.8725159
Ar              3.2747573             -1.0235856              4.1558411
Ar              0.8804932             -4.0315893              4.1066185
Ar              4.1529040              4.7832118              0.1482434
Ar              0.1366559             -3.6613336             -2.0239395
Ar             -3.2969720              3.1102071             -6.8527792
Ar              5.5584351             -1.3215836              1.2375239
Ar              0.0778588              3.5156834             -5.1492263
Ar              0.2987610             -1.0524433              6.6343753
Ar              4.2550517             -4.6359478              2.5151081
Ar             -1.4986108              2.3305415              1.7806769
Ar             -4.9736545             -4.2460222              1.7023916
Ar             -1.8015535              4.9316361              4.2912397
Ar             -0.4590704              3.0317673             -1.5852237
Ar              1.3286831              6.1254418             -2.2332064
Ar              0.7847222              5.1021092              1.4489811
Ar              1.0704606             -6.0121893              0.8303199
Ar              2.4452853             -3.1168484             -4.8505819
Ar              3.0714411              2.7859493             -2.8261055
Ar              6.0710707              1.7733694             -0.7421327
Ar             -4.9133023              3.1009527              2.8155168
Ar             -2.6939709             -2.8243629              4.7465572
Ar             -1.7024531             -2.5631010             -4.9728235
Ar             -0.6946934              0.3628903             -7.1380729
Ar              1.3168893              2.4772838              4.2520572
Ar             -2.8174247              5.4262063              0.3371004
Ar             -2.5486636             -6.1587163             -0.8249117
Ar             -2.0474949             -6.4213621              3.1768884
Ar             -3.1944557              4.6536899             -3.3941472
