42
Energy:            -190.9990
Ar             -1.2908027              0.1169097              0.5020935
Ar             -0.7369855             -2.3480783             -2.1894152
Ar              2.8904243             -1.9861361             -3.4475637
Ar              0.7961460             -0.7603522              3.3816622
Ar              0.9169156              1.0494333             -2.2912619
Ar             -4.1464953             -1.8727878              1.8611455
Ar             -1.8838890              0.0890768             -4.7455046
Ar              1.9973333             -1.4703260              0.0610175
Ar             -0.9190626              6.1158209             -2.0141774
Ar              0.1081953              3.6405743             -4.7241289
Ar             -0.7697336             -3.4479032              1.3780625
Ar             -0.7619034              3.6549833              0.8159449
Ar              2.2851689              4.3481478             -1.3653833
Ar             -4.1167381             -0.7568198             -1.7575920
Ar             -0.9792627             -6.9832484              0.3902211
Ar              1.8094493             -4.9293386             -1.1356138
Ar              2.4014742              1.9009332              1.4343692
Ar              4.6806328              0.6433770             -1.2281547
Ar             -4.0414420              5.4393823             -0.0603470
Ar              5.1743273             -3.1749752             -0.5427944
Ar              3.2831124              0.9498470              5.4607029
Ar             -3.5745470             -4.4246649             -0.8736489
Ar             -0.1836817              0.0468991              6.8444455
Ar              2.7950297             -4.1171470              2.4590920
Ar             -3.5855195             -5.5058250              2.7717052
Ar             -2.5409513              2.6440782             -2.1863842
Ar              4.6908543             -0.8682443              2.4943531
Ar             -0.0341223             -5.9669139              4.0366690
Ar             -4.4816448              1.8921857              0.9806184
Ar             -1.1918175              7.2321862              1.6874775
Ar              3.8002506              2.5891906             -4.2807002
Ar             -3.1419652              4.4676509              3.5107341
Ar             -3.5607470             -3.3023399             -4.5059447
Ar              0.3248989              2.9849681              4.3395164
Ar              0.0561629             -3.1479322             -5.6996398
Ar             -1.9197417             -2.8041886              4.8993765
Ar              1.8009631             -3.1201059              5.9725115
Ar             -2.4180332              3.0888706              6.9524853
Ar              1.5306871              0.3122245             -6.0816998
Ar              2.1523955              5.5597930              2.2390786
Ar             -1.0810858             -5.9132638             -3.2954292
Ar             -2.5814860              0.7605996              3.9676909
