42
Energy:            -185.6870
Ar             -0.2615247              0.2845316             -0.8691842
Ar             -0.3150912              3.9379182             -1.4448089
Ar              0.8559673             -2.8855818             -2.6982678
Ar              2.4483602             -1.6654313              0.6122653
Ar             -1.1949633              2.6058434              1.9192446
Ar             -1.0700533             -3.0734952              0.3253534
Ar              3.3704836             -0.2857650             -2.8899708
Ar             -0.3078014             -0.7015184              2.8734490
Ar             -2.8644620             -1.8469795             -2.6067972
Ar              2.7565996              2.2089486             -0.2783541
Ar              4.3064937             -4.5561357              2.0196343
Ar             -4.7121848              3.2645076              0.9387868
Ar             -2.3205185              6.0830036              1.6950897
Ar             -1.7275060             -5.5357777             -2.3798423
Ar              3.1426528              5.7211969             -1.6688065
Ar             -3.5329965             -0.3742306              0.8540453
Ar              1.4379426             -5.6192838             -0.1256178
Ar              1.3978052              5.2951410              1.5278926
Ar              4.3529554             -3.8006290             -1.7984593
Ar              4.6009096             -7.4026341             -0.8358254
Ar             -3.3441152              1.8184775             -2.1838619
Ar             -1.9336264             -6.4832280              1.3954859
Ar             -1.6976940              3.5148038             -4.9799800
Ar             -0.1192459              5.1009030              4.8052442
Ar             -0.6635616             -2.2067265              6.1817615
Ar              0.7045932             -4.3259229              3.3056137
Ar              2.1086877              3.0216557             -4.0592955
Ar             -3.6208774              0.0931543              4.5075865
Ar             -4.5807778             -4.0453023             -0.0496556
Ar             -0.1903432              7.6764558             -0.8941445
Ar             -0.1612312              0.1392569             -4.5222750
Ar              4.9965776              4.3946494              1.7076671
Ar              0.4750868              6.4220852             -4.2966930
Ar             -3.4556817              5.6532936             -1.9793570
Ar              2.2433961              2.0770896              3.3563482
Ar             -1.3670744             -3.3312805             -5.6513578
Ar             -3.5957707              3.8100469              4.5280247
Ar              2.9523527             -1.5366626              4.3919905
Ar              1.9814452             -6.2615791             -3.7313442
Ar             -3.0166780             -3.4005178              3.4044837
Ar             -0.5141082              1.5757813              5.8104353
Ar             -3.6860776              0.2048643             -5.6371641
