42
Energy:            -189.8659
Ar              0.0203348             -0.7254025             -2.4741272
Ar              1.3477789              1.9085092             -0.0818371
Ar              2.6915050             -1.5276234             -0.0193153
Ar             -0.7918811             -2.7162961              0.7059486
Ar             -2.7768471              0.1300034             -0.4361041
Ar             -2.7101555             -4.7434295              3.3155540
Ar              0.7632219              2.9134940             -3.6114215
Ar              1.3550090             -4.7518991             -1.4495119
Ar              1.4151041              3.1627595              4.1040969
Ar             -4.9397378             -1.3794701             -3.0322365
Ar             -1.6448333              2.3453190              2.1753202
Ar              0.0213126              6.5105000             -2.4271410
Ar             -2.5693647              1.3407115             -4.1443533
Ar             -1.9737711              3.6286361             -1.2323398
Ar              1.4580332             -3.1381026             -4.8037626
Ar              4.2052602              0.8061959              2.8353960
Ar              4.3604958             -4.9851751              0.7177939
Ar             -2.0918572             -3.7627197             -2.5779410
Ar              0.7234552             -0.2532635              2.7986753
Ar              0.5551035              5.2848343              1.1177852
Ar             -0.1095076             -2.8300208              5.1861546
Ar             -4.7869885              4.0507730              1.2791746
Ar             -2.2045047             -2.0062227             -5.7581952
Ar             -2.9586057             -1.0181415              3.1984619
Ar              0.6514573              0.2894888             -6.1821849
Ar              4.6877429             -3.2187379             -2.6106506
Ar              4.1340521              4.3518762              1.8473713
Ar             -1.1709757              1.0036469              5.7690297
Ar             -1.8158004             -6.3120294              0.0700429
Ar              6.2472806             -1.7334948              0.8546004
Ar             -2.1466864              5.4646074              3.9027713
Ar             -4.5122771              2.2214820              4.5278357
Ar             -5.9272926              0.4069698              1.4114539
Ar              1.0036891             -5.3692859              2.4437515
Ar             -4.4701557             -3.1192189              0.3509976
Ar              3.4017387             -2.7345803              3.5328107
Ar              3.3659263              0.1513701             -3.5555269
Ar             -5.4787965              2.2352458             -1.9250626
Ar              2.4465564             -0.0414434              6.0789167
Ar              5.0641043              1.5683395             -0.6450001
Ar             -2.6533107              6.9842403              0.3530182
Ar              3.2825645              4.7584747             -1.7001577
