42
Energy:            -184.6514
Ar              0.4210228             -0.7073563             -0.4755680
Ar              3.8203717             -0.0512306             -1.5366068
Ar             -1.7400619              1.8470943             -1.8688847
Ar             -1.0547578              1.7171683              1.7309186
Ar             -1.6703530             -2.7948556             -2.6670411
Ar             -3.1377735             -1.0548971              0.3778345
Ar              2.8593029             -2.8557262              1.4854770
Ar             -0.3420167             -1.5658042              2.9129012
Ar              4.5852060              3.6989435              1.5880339
Ar              1.8801649             -3.4870364             -2.0962041
Ar              2.5179428              0.7051187              2.2493424
Ar              1.5500656              2.8448343             -0.5237067
Ar             -0.5957368             -4.3373874              0.5283986
Ar             -4.4693605              2.4860476              0.7700454
Ar             -4.2580840             -4.4714201             -0.5333610
Ar              1.1549224              4.3078915              3.0187376
Ar             -3.2714420             -3.7056172              3.1761455
Ar              3.8626241             -6.0139863             -3.8155565
Ar              1.6046948              6.2245875             -1.9416744
Ar             -0.0367805              1.3482657              5.2420050
Ar             -2.3684599              2.0847547             -5.4496251
Ar              4.0341804              1.4464515             -5.1016800
Ar             -2.6663711              4.0366410              3.9677923
Ar              0.7395466             -4.8556565              4.0347431
Ar              5.4342621             -3.5531161             -1.2355939
Ar             -3.5029500              0.1368294              3.9909272
Ar              0.7938927             -0.3924139             -4.1080067
Ar              2.4905652             -1.5416620              5.2504594
Ar             -1.2961118             -2.2109766              6.3283800
Ar             -4.7805014             -3.9315229             -4.3353635
Ar              4.6671943              3.6911168             -2.1930293
Ar             -4.4210817             -0.3542791             -3.1319549
Ar             -1.9061997              5.3889990             -3.4111023
Ar              3.6044124              2.4193824              5.2955140
Ar              4.1464065             -2.2668783             -4.6894767
Ar             -5.0046107              3.3567501             -2.8771376
Ar              0.7267939             -3.9122250             -5.5469039
Ar              0.9748093              3.2397700             -4.1172129
Ar              2.7692115             -6.3114402              0.0822587
Ar              3.6362104              5.5169569             -5.2798202
Ar             -1.4737406              5.0321326              0.2716175
Ar             -2.2615612             -1.5882445             -6.1020460
