42
Energy:            -190.3334
Ar             -0.8488242              0.0387161              0.5984817
Ar              1.3933874              0.8095847             -2.2146321
Ar              2.4856129              1.3154254              1.8589566
Ar              4.4076836             -0.5458707             -0.6721932
Ar             -0.7972667              2.4871043              3.3534040
Ar              1.4502078             -2.1876010              2.3906866
Ar             -3.0369230              2.1444494             -1.4063933
Ar             -1.8572314             -3.3876598              1.0776817
Ar              1.1462292             -2.6863608             -1.1463033
Ar             -1.5791838             -1.0983945             -2.8650284
Ar              2.0581263              6.5636487             -0.8488568
Ar             -4.8726677             -4.9714746             -0.3946431
Ar             -4.0872380              1.1801526              2.1154694
Ar              1.8012932              4.0306418              5.4207605
Ar             -4.7933114              0.2823220             -4.1549713
Ar              1.6114186              0.1424742              5.2724576
Ar              1.6716083              4.1101718             -3.8428253
Ar             -1.5959852              5.4740273             -2.4881779
Ar              4.2544810             -4.0674602              0.3746374
Ar              4.9434356             -1.3361966              3.0413586
Ar              4.8420522              2.0051311              4.8211787
Ar             -5.0217892             -2.5297356              2.7986684
Ar              1.3045151             -0.1780164             -5.7405090
Ar             -1.3880949             -5.3454004             -1.9746511
Ar              0.2714301              6.0877558              2.5726885
Ar              0.2371252             -3.6533202             -4.8230697
Ar             -1.7504756             -1.0837993              4.0649004
Ar             -4.0993391             -3.5200143             -3.8795817
Ar              3.6652744             -2.4215490             -3.7943306
Ar             -4.4634628             -1.2677085             -0.6793497
Ar             -0.4949667             -4.6492650              4.3767610
Ar              3.9502749              3.2481975             -1.0676159
Ar              0.9970986             -5.7681154              1.0487266
Ar              0.2846092              3.4842282             -0.0752496
Ar              3.3810558             -4.8521522              3.9929977
Ar             -1.4023977              2.1556302             -4.6844121
Ar             -2.9816141              4.7672874              1.2038321
Ar             -2.2492023             -1.2560272             -6.4909990
Ar              4.4764589              1.2711848             -4.1890989
Ar              3.7502005              4.7627746              2.2779586
Ar              6.3032223              1.8874659              1.4375149
Ar              2.4080283             -5.8497254             -2.5247034
