42
Energy:            -193.5385
Ar              0.6876153              1.1227210              1.1077478
Ar             -2.8810217              1.3151202              2.1025273
Ar             -2.6659135             -0.9291662             -3.6550309
Ar              1.5489801             -2.4921746              0.5602426
Ar             -1.8607402              2.0898788             -1.4047426
Ar              1.7814291              0.9339929              4.6616782
Ar             -3.0225801              4.8315518              0.8489781
Ar             -1.7836580             -1.2996380             -0.1421650
Ar              0.8566635              3.2271287             -3.7061697
Ar             -0.7414368             -1.4917149              3.3186462
Ar              6.5507373              2.6202782              1.0518283
Ar             -0.4129281              3.8125319              3.4220082
Ar             -3.2869283             -2.4006222              5.8401974
Ar             -4.3779390             -2.2257107              2.2368999
Ar              0.8927700             -0.2464783             -2.3377097
Ar              2.3162698             -2.7491982             -4.6592785
Ar             -5.1561008              3.6145427             -2.0895172
Ar              4.0625255             -0.1097014              1.7916174
Ar             -5.0892516              0.0727915             -0.8023161
Ar              3.0272967             -5.0487413             -1.6560400
Ar              7.4440909             -0.9717662              0.4088874
Ar             -1.8799382              1.1526772              5.6990593
Ar              1.9591538             -5.8538901              2.0237414
Ar             -1.5373561             -4.6557307              1.2601496
Ar              0.3104520             -1.7145939              6.9211961
Ar              0.6427705              4.6035728             -0.1727412
Ar             -0.4793925             -3.8567538             -2.3878410
Ar              3.2045069              3.5890840              2.4061869
Ar              4.3552433             -1.4660231             -1.7033659
Ar             -4.2383347             -3.6846986             -1.3788422
Ar              5.5466891              1.6217554              4.6810733
Ar             -4.0533981              4.0211376              4.4308356
Ar              2.6997473             -2.7157319              4.1299506
Ar             -6.2087550              2.8142954              1.5270934
Ar             -0.4117124             -4.8346617              4.8571207
Ar             -1.9642057              5.6022119             -2.7309771
Ar              0.1238635              0.2000412             -5.9265461
Ar             -2.7133858              2.6062687             -4.9627562
Ar              3.6633333              0.8252145             -4.6438278
Ar             -5.4899932              0.4972509              4.5901684
Ar              3.4667188              2.1993697             -1.1265325
Ar              5.0217469             -3.7318151              1.3032357
