42
Energy:            -186.6070
Ar              1.7111574              0.5268429             -1.4655179
Ar              1.9601397             -1.4221279              1.6528680
Ar             -0.8264507              0.9814155              1.3244763
Ar             -1.0607702             -2.1727352             -0.3780246
Ar              5.0078329              2.4165395             -0.6205470
Ar             -3.1301016             -4.7408622              1.1100354
Ar             -1.9719224              0.8125846             -2.1029890
Ar              1.9143353              3.2101396              1.2203177
Ar              0.1152613              3.8221275             -2.0122718
Ar              2.1086188             -3.1184574             -1.7129529
Ar              0.8598789              0.6995994              4.5410167
Ar              4.3935707              1.0903513              2.9025419
Ar              2.8668212             -0.9022570             -4.6955627
Ar             -3.1938930              0.8893391              4.1844388
Ar              0.0187617              1.5956493             -5.0716660
Ar             -1.3448599             -2.2113100              3.2699819
Ar             -4.0351771             -2.2924909             -2.5481262
Ar              5.1352173             -2.6145221              3.2163385
Ar             -0.6241655             -2.0068872             -4.0879355
Ar             -3.0966258              3.5887993              0.0949210
Ar              5.0271783             -1.2309532             -0.3189328
Ar             -3.1426989              3.7686212             -3.9110246
Ar             -1.0302900              3.9238430              3.5258997
Ar              1.8365870             -2.9476102              5.0332372
Ar              5.3699186             -3.4642633             -3.3667822
Ar             -5.0440576             -2.5612265              3.6386939
Ar             -5.6000902              1.2826363             -2.2641182
Ar              1.9346539             -4.6440930             -5.0312690
Ar              4.5368156             -4.9239666              0.2902352
Ar              3.3092845              2.8978203             -3.8790659
Ar             -4.1400116             -0.4084263              0.7495998
Ar             -3.5334999              0.1988851             -5.3817135
Ar              5.0950476              4.9255515              2.1416592
Ar              2.5823089              4.0045521              4.7950909
Ar              3.4908449             -6.0364008              3.7164805
Ar              3.2409779              5.7140363             -1.1829966
Ar             -4.6971613             -5.9352249             -2.0788414
Ar              0.7412190             -4.9040429              1.3823521
Ar             -6.4637936             -3.2840314              0.1300331
Ar              6.1517205              0.3329516             -3.5239008
Ar             -0.1690444              6.2725096              0.7388939
Ar             -0.9342152             -5.3200427             -2.2126586
