42
Energy:            -186.8529
Ar              0.8332357             -0.0299752             -0.0897038
Ar              2.0092861             -3.4869482              0.8379009
Ar              3.2788611              2.7493682             -0.0432520
Ar             -1.4956420             -2.8393978              1.1376167
Ar             -2.4940371              0.5044173              1.7737782
Ar              4.4389487             -3.3101513             -2.0247393
Ar             -1.5133261              2.6817207             -0.9423245
Ar             -2.4375664             -0.8764463             -1.7728267
Ar             -1.7932126             -4.9533568             -1.8540753
Ar              0.3337396              2.8266471              2.2156556
Ar              3.6254869              1.5202651              3.5114219
Ar              0.8031349             -2.5103830             -2.7109693
Ar             -3.2963893              4.0883227              2.0029358
Ar              0.6587283              5.5728734             -0.3034694
Ar             -5.1554739              1.4700552             -0.5144569
Ar             -5.5954222             -1.3555576              2.2853859
Ar             -0.4255912             -6.4358381              1.2540520
Ar              3.7451979             -2.3666879              4.0143848
Ar              3.1096232              5.2806626              2.7114652
Ar             -3.6226897              2.0691346             -3.9561835
Ar              2.3927379              3.9134840             -3.3940364
Ar              1.7771031             -6.0444166             -1.9007821
Ar             -4.3738448             -4.2137991             -4.3809817
Ar              4.4707591             -0.7243827              0.6680091
Ar              5.6005670             -4.3550261              1.3901892
Ar              3.4384909              0.1908073             -2.8856802
Ar             -1.1583875              4.9515444             -3.8097283
Ar             -2.3578777             -1.2370081             -5.4314557
Ar             -4.2705793              5.0408063             -1.5773894
Ar              1.3687207              3.6251589              5.6891944
Ar             -4.9107087             -3.4141719             -0.6621696
Ar             -2.7229078             -1.9091321              4.6504009
Ar              3.0181125             -4.6012278             -5.1823748
Ar             -1.9549821              1.9711065              5.0764406
Ar              0.5661443             -0.5923241              3.5433151
Ar             -0.7008536             -4.5976775             -5.4111726
Ar              0.0071036              1.1099291             -3.8014618
Ar             -3.8956305             -5.0261015              2.7216814
Ar             -0.5105684              6.1835918              3.4397919
Ar             -5.7982522             -0.9116679             -3.3952895
Ar              0.2773061             -4.2278792              4.1723720
Ar              1.4378854             -1.3496112             -6.1673645
