42
Energy:            -189.5997
Ar             -1.4506708              1.4885198             -0.6938741
Ar              2.1840742             -3.2740078             -0.3256487
Ar              1.7441913              3.2061790             -1.9239484
Ar              3.1252187              0.2933609             -0.2628395
Ar             -2.4363833             -0.6019453             -4.2475316
Ar             -3.0434409             -0.9077844              1.7609357
Ar             -2.2288119              2.4195134              3.0472067
Ar             -1.1477701             -2.0859157             -1.0600306
Ar             -0.5496896             -3.4853768              2.2708024
Ar              0.9977158              3.4840648              1.5793169
Ar              0.9359321              2.0345699              5.1041866
Ar             -3.8242894             -4.3180388              0.4733066
Ar              3.8708389             -1.1673048             -5.2300234
Ar              5.1579774              1.6142303             -2.9500127
Ar              6.7472202              0.6156109              0.4540706
Ar             -4.7924786             -1.1753746             -1.4607316
Ar             -5.3012796              1.8040783              0.9124962
Ar              1.0474387             -0.0870446             -3.2065109
Ar              3.9611320              1.2130547              3.1579574
Ar              2.1706734             -1.9093425              4.6777067
Ar              0.4799039             -0.0753147              2.0212081
Ar              4.8149920             -2.2545733              2.0107795
Ar             -1.0692499              2.8962545             -4.2713289
Ar             -1.3781976              5.1229988             -1.0817740
Ar             -0.3830524             -4.6088447              5.7198947
Ar             -4.4101593              2.4067067             -2.7016983
Ar             -3.0983349             -4.2554013             -3.2647336
Ar              4.6230491              3.7103554              0.3445924
Ar              5.3904782             -2.1048312             -1.8898769
Ar              0.7319747             -3.7272409             -3.8151455
Ar              2.1554205              6.5269677             -0.3328385
Ar              2.5519588              2.6434501             -5.4615545
Ar              2.5372196             -5.2867736              2.9214744
Ar             -6.5494627             -1.9418488              1.8412831
Ar             -1.9920725             -6.7709430              2.8310451
Ar             -5.0333708              0.2467510              4.5934833
Ar             -3.8566984             -3.6165122              4.1792945
Ar              3.5301153              4.8988237              3.8282440
Ar             -1.4317638             -0.9149284              5.1121546
Ar              4.5167328              5.3108122             -3.1634826
Ar             -0.5642502             -5.7900641             -0.7079757
Ar              0.9177439              6.1051268             -4.0352180
