42
Energy:            -190.1749
Ar             -0.8839201              0.2667748              1.8541725
Ar              2.5242881              1.2884667              0.6947036
Ar             -1.1481295             -3.2576981              2.1460240
Ar             -2.4411942             -1.6954579             -1.4101945
Ar             -2.6716669             -0.8142568              4.8989545
Ar             -0.6190524              2.3745939              4.9502308
Ar             -4.5272561             -3.9230686              3.9529259
Ar              1.3980394              6.7441826              0.3099206
Ar              0.0059819             -1.5088381             -4.1919029
Ar              3.0805309              0.2132802             -2.9927276
Ar             -0.2016693              1.2982436             -1.6574072
Ar             -0.6045886             -5.0868536             -1.1385185
Ar             -2.1264946              5.7012285              3.9844585
Ar             -3.7868607              2.3984419              3.1224549
Ar             -3.5121690              1.9227105             -0.4985191
Ar             -4.1136689             -4.5957921              0.2505316
Ar              1.0358202             -1.8558247             -0.5475156
Ar              5.7154747              0.3187239              2.5119614
Ar              1.5979230              5.3353472              3.9408236
Ar             -6.8838850              1.6920009              1.1347614
Ar             -0.4025030              3.7199859              1.2345312
Ar              2.2928400             -1.5850647              2.8150399
Ar             -4.3564257             -1.0682771              1.5879051
Ar             -0.2216193             -6.6994886              2.8415061
Ar             -1.2171290             -4.2179163              5.7348409
Ar              2.9143483              1.8232500              4.3362440
Ar              0.8089192             -0.9961568              6.0775738
Ar              2.5153214             -4.8399126              0.9908592
Ar              2.4501331              3.8819367             -1.9130634
Ar             -3.7423996              5.4072147              0.6303797
Ar              5.7561591              1.8907756             -0.9746078
Ar              4.6740380             -1.8285150             -0.3059477
Ar             -5.9470109             -0.5792761             -1.8410091
Ar              4.2532323              4.3592304              1.5245042
Ar              2.3747496             -4.5864670              4.8484327
Ar             -6.3506263             -0.1362449              4.5370075
Ar              2.7922743             -3.9318724             -2.9217878
Ar              4.5314763             -1.3404826              5.7861332
Ar             -2.9685164              0.9863203             -4.0773354
Ar              0.5727608              2.3860536             -5.0170499
Ar              5.5147961             -3.5386222              2.9110231
Ar             -1.3186801              4.7087194             -2.2823900
