42
Energy:            -189.0420
Ar             -1.0389384             -1.2987512              2.1430150
Ar              0.8457227             -1.6538225             -1.0969439
Ar              1.9071778             -3.6761092              1.7411216
Ar              2.3321004              0.2625108              1.6516048
Ar             -0.0736816              2.0763946             -1.4228637
Ar              3.2913679              0.8347302             -1.8232341
Ar             -4.0490156              2.5231803              3.9829816
Ar             -2.5336051             -0.6384391             -1.2554185
Ar             -2.7611796              5.6617119              1.7056249
Ar             -0.9829528             -4.4864392              3.9745353
Ar             -4.6497151             -0.3373105              1.7121720
Ar              2.7609986             -2.2458163             -4.1858247
Ar              1.7232495             -1.6268993              4.8013462
Ar              2.0566018              3.2239274              3.8975009
Ar             -0.2594136             -0.0941763             -4.3704946
Ar             -1.1472300             -3.6142527             -3.5460188
Ar              0.5404814             -7.1269591              1.4880968
Ar             -0.0512309              3.5874902             -4.9923256
Ar              4.1491955              3.4278049              0.7207007
Ar              3.1593897              1.5475066             -5.3388595
Ar             -1.4302463             -4.3139514              0.0718264
Ar              6.1552193             -0.6131725             -3.5923260
Ar             -3.2352261              2.1526506             -3.7046775
Ar             -3.9257090             -1.3866086             -4.6654986
Ar             -1.7234671              5.2902665             -1.9856165
Ar             -0.7354592              1.0566394              5.4294179
Ar              6.0966859              3.0633794             -2.6118666
Ar              6.3172031              0.4101601              0.2530612
Ar              2.5697811              4.4572880             -2.5461731
Ar             -4.3451174             -3.9617580              2.2546058
Ar              5.0607245             -2.1240407              2.8628190
Ar             -4.6754114             -3.5740580             -1.6163383
Ar             -3.3687820             -1.5414177              5.0218926
Ar              1.8001747             -5.1998673             -1.7274554
Ar              5.2978345              1.4530238              3.7622660
Ar              0.8710100              5.1712947              0.7743174
Ar             -0.9874702              2.2869714              2.0136202
Ar             -1.1402747              4.7908611              4.9204100
Ar             -3.9100347              2.7212283             -0.1603970
Ar              4.4262067             -2.6084605             -0.8143445
Ar             -7.4942720             -2.4920804              0.6210522
Ar             -6.0802907              0.0754978             -1.8546626
