42
Energy:            -190.2928
Ar             -0.3500480             -0.6574736             -0.6686008
Ar             -1.0379577              2.5893762              1.0127673
Ar              2.4648057              1.7934586              0.0649775
Ar              2.9881746             -1.8460111              0.3703633
Ar             -2.5356349             -6.0785386              1.2000668
Ar             -1.9637660             -2.3805231              2.1965780
Ar              5.2986182              2.0878825             -2.3170678
Ar              0.8329296             -0.0538718              2.7975944
Ar              3.7382264             -5.4296577              0.7661449
Ar              5.8176139              0.4788015              1.1281420
Ar             -2.9029638              0.0239984             -3.3149920
Ar              1.2847436             -3.8262918              3.2130931
Ar             -3.7863589              0.2090623              0.2350252
Ar             -0.7111274              5.8477861             -0.8928404
Ar             -3.2340816             -3.1758425             -1.2234911
Ar              2.4830651             -0.3176251             -3.0394223
Ar              0.2639606             -4.2802842             -0.3363138
Ar             -4.7809621              3.3536050              1.8865285
Ar              1.7301031              5.0152532              1.8087580
Ar              2.7804426              4.9312531             -1.8843841
Ar             -6.7592861             -1.8829071             -0.6717409
Ar             -0.0376290              2.4700337             -2.5792372
Ar             -3.4664533              3.5119291             -1.6324690
Ar              5.2985782              4.2109906              0.8305079
Ar             -5.3358128             -3.8125892              2.1374047
Ar              5.8846220             -1.6406918             -1.9843120
Ar             -6.3391690              1.3738341             -2.3851723
Ar             -0.5896351             -1.6615616              5.7525357
Ar             -2.6215939              3.2012719             -5.2710072
Ar              4.1159182             -1.4692400              3.9248465
Ar              2.7727704              2.8662218             -5.0368378
Ar             -0.0440425              0.4453659             -5.7333330
Ar              0.0838339              3.1179692              4.6248666
Ar             -4.3001118             -2.1707504              5.3239334
Ar             -1.9403799              5.7292882              2.7196728
Ar             -0.3640599             -2.7530126             -3.7314809
Ar              3.6234926              2.2795414              3.6233469
Ar              3.0783226             -4.0241867             -2.7550691
Ar             -2.7541466              0.8601911              3.8192360
Ar             -6.3208868             -0.1667472              2.8234424
Ar              0.1808358              5.6180175             -4.5702958
Ar             -1.9851973             -5.0770247              4.7623911
