42
Energy:            -187.6508
Ar              0.2736060              0.1475530             -0.8061872
Ar              1.8249898              3.1936202              0.4163534
Ar             -1.4605055             -1.4816729              2.0519229
Ar             -1.3554447              2.2972390              2.0210335
Ar              1.7926181             -2.7201143              0.6548119
Ar             -4.6220407              0.7257492              1.3038567
Ar              1.6952661              0.3140348              2.7463380
Ar              4.1531385              0.4704048             -0.0599927
Ar             -1.4209457             -4.3673450             -0.3060500
Ar              5.0028626              3.2713059              2.3733709
Ar              3.1576370             -3.0031403              4.0856031
Ar             -4.5723428              2.0031591             -2.2695385
Ar             -3.7189168             -0.4463294              4.7475224
Ar             -1.6302220              5.3836544              4.5060610
Ar              1.9466247             -5.3320936             -1.9084720
Ar             -1.3298108              0.7942503             -4.1381271
Ar             -6.6885274             -1.0926315             -1.3053421
Ar              3.0676982             -1.7298666             -2.7466633
Ar              5.4192161             -0.2097008              3.4465356
Ar             -4.7145810             -3.0955431              1.4421214
Ar             -3.0033825             -1.2256426             -1.3382153
Ar             -4.0365452              4.4796550              0.6909254
Ar             -3.2125579             -6.6072700              2.0424143
Ar             -0.5017458              5.9702476              1.0526919
Ar             -0.8705409              1.8062912              5.6211468
Ar             -4.6214686             -1.0366940             -4.6353894
Ar             -0.0961086             -1.8143322              5.4489908
Ar              2.2400936              2.1094850             -3.1573706
Ar              5.4438403             -2.9349519              0.7644240
Ar             -4.4704545              3.1041317              4.1867397
Ar              4.9570536              4.0594106             -1.3282430
Ar             -1.2388244              3.4465177             -1.5813572
Ar              1.7263107              3.9035250              3.9919418
Ar              0.1587109             -7.6420207              0.5523446
Ar              1.6628644              5.8334750             -2.1487962
Ar             -0.3970440             -2.7398167             -3.4684511
Ar             -3.1377975             -4.0495303              4.7655752
Ar              0.0431016             -4.8532046              3.1145056
Ar             -0.2048442              4.2838027             -5.0802311
Ar              3.3530250             -5.9578686              1.6353673
Ar              2.8056605              0.6961692              6.1648692
Ar              3.2521823              6.4541565              1.3326071
