42
Energy:            -187.5907
Ar             -0.9544788             -0.5783314              0.0017100
Ar             -3.9289309             -1.2653229              2.1733832
Ar              2.5733551             -1.0417653              1.3482723
Ar              1.7958030             -1.7416073             -2.1887879
Ar              1.7502634              1.7439046             -0.9380381
Ar             -3.0012438              2.2438106              1.2035981
Ar             -3.0786965             -3.5142598             -0.8419671
Ar             -1.6839354              2.3074507             -2.2779308
Ar              0.4474590              1.7796524              2.5315011
Ar             -1.6459175             -1.2121313             -3.5626046
Ar              0.4165347             -3.9961819              0.5089468
Ar              3.1901470              4.1954697              1.6068024
Ar             -4.4466006             -0.1009280             -1.3582876
Ar              0.8883920             -5.2097715              4.0618640
Ar              4.2187385              4.2006232             -2.0797563
Ar             -1.6964636              4.7027675              3.6709306
Ar             -2.5833171             -4.7275858              2.6828482
Ar              3.9261358              1.3130077              3.9054346
Ar             -0.3286960             -4.6911682             -3.1064448
Ar              3.8941815             -4.4880460              1.8439910
Ar              3.1561844             -5.2091658             -1.8155248
Ar              1.2102755             -2.4166514             -5.7683098
Ar             -2.5288849              1.1300827              4.7360524
Ar             -5.1673923              2.8462187             -3.5655896
Ar             -5.1453888             -0.6775899             -4.9740519
Ar              3.0821155             -2.2610270              4.8437897
Ar              1.7295801              4.1497459              5.1213637
Ar              5.2677894              1.3465273              0.3303033
Ar              1.0756084              1.1714952             -4.5680031
Ar             -0.3797500             -1.7420238              3.4350438
Ar             -3.7890868             -4.1421184             -4.5025175
Ar             -3.7738908              5.1958014             -0.9401013
Ar             -6.5072250              2.7050013              0.0143399
Ar              5.2976640             -2.2484441             -0.9192433
Ar             -0.2218760              4.6934221              0.2044547
Ar              4.5273302              0.5759944             -3.2836759
Ar              0.9155829              0.5625187              6.0854868
Ar             -2.2632032             -1.8444895             -7.1796386
Ar             -2.3899673              1.7075610             -5.9034086
Ar              6.1026214             -1.5153892              2.6874383
Ar             -3.1454777             -2.4974306              5.7435349
Ar             -0.9694263             -5.3649363             -6.7417265
