42
Energy:            -185.4338
Ar             -0.1066474             -0.2492781              0.0481408
Ar             -1.8669510             -1.5551177             -3.1777965
Ar              1.7719917             -0.6010168             -2.9715811
Ar             -1.0958006              0.3116741              3.4918817
Ar              2.0692966             -1.4049504              2.7609052
Ar             -3.7290841             -3.4958358             -0.7047056
Ar             -1.7753064              3.1989878              1.3373021
Ar             -1.2633828              3.5671812             -4.7981900
Ar             -2.4920480              1.7098915             -1.9235712
Ar              3.7328611              0.8084408             -0.0984454
Ar              3.6377716             -2.8242168             -0.2733432
Ar             -0.7541749              3.7312447              4.9568848
Ar              1.6104786              2.4148740              2.3180731
Ar             -1.2776375             -3.1306997              2.1251100
Ar             -0.1077332             -2.4466045              5.7271308
Ar              4.5515376              3.8485816             -2.1454336
Ar             -3.7182706             -0.2258243              1.0328125
Ar              0.7587783             -3.4290087             -5.1328705
Ar              1.6020001              0.9288719              5.8485432
Ar             -2.0981589              0.7059331              6.9729934
Ar              3.8621096             -2.0045608              5.9828089
Ar             -3.9297305              0.6313422             -5.3237703
Ar              3.2788200             -0.8294686             -6.4713762
Ar             -2.2748279             -5.2227155             -3.7882501
Ar              4.7982012              0.9286679              3.6108994
Ar             -4.2589477              2.1298159              3.9709174
Ar             -2.5612612             -2.7044963             -6.7336859
Ar             -5.2753936              3.1393284              0.1968802
Ar              5.3125326              0.3493672             -3.4706187
Ar             -0.2780715              0.1833039             -6.0312484
Ar             -5.7712225              0.0814125             -2.0521863
Ar              0.2424122             -3.8135898             -1.2797965
Ar             -5.0853481              3.7403955             -3.5675060
Ar              0.9284579              3.0012935             -1.4502935
Ar              2.4139962              2.5247320             -4.8959993
Ar              4.9920361              1.4767116              7.3190186
Ar             -2.2409758              5.3941012             -1.6160944
Ar              4.2828143             -3.3283043             -3.8690154
Ar             -5.2534553             -2.9038290             -4.1669110
Ar             -3.8983380             -1.7599756              4.5643190
Ar              4.8125818              4.1151693              1.5868677
Ar              3.2789025              4.1748147              5.1254979
