42
Energy:            -190.9198
Ar              0.9121514             -0.9736012              1.0134671
Ar              0.1236715              2.5746097              1.6637862
Ar             -1.9260033             -0.1425052              3.2425609
Ar             -2.5434426             -2.6291581              0.4157974
Ar              0.5836687              1.5721908             -1.9342108
Ar             -2.5650384              0.8870144             -0.3001811
Ar              1.8871495             -4.1876620             -3.6651089
Ar              3.3753404              1.9986569              0.1933282
Ar              1.5112164             -0.3138553             -5.1179767
Ar              0.6637851             -4.5227471             -0.0572888
Ar              3.2174450             -1.0920260             -1.8732660
Ar             -2.7637597              3.7550807              3.6174245
Ar             -2.5899126             -6.2242152              1.1506294
Ar             -4.0598952             -1.8987738             -3.0234526
Ar              3.4837585              5.3177646              1.7734779
Ar              3.1168447              2.2118336              3.8748985
Ar             -0.8316794             -3.7265099              3.4421801
Ar              1.7469357              4.9741306             -1.5320741
Ar             -5.2300954              1.7593313             -2.6978289
Ar             -1.2001926              5.8658372              0.7880446
Ar              1.5622774             -1.0554733              4.6328014
Ar              0.6343840              5.3509394              4.1297536
Ar              5.7195354              4.5040354             -1.1696012
Ar              6.4334431              2.6096376              2.1190188
Ar             -2.0626625              4.0501959             -2.3871942
Ar             -2.0894780             -5.0876861             -2.5188228
Ar             -4.5865739              3.9135014              0.3825097
Ar             -5.8947258             -0.8898185              0.0017599
Ar              0.6540531              3.5325452             -5.0396696
Ar              2.8647841             -4.0644787              2.9287675
Ar             -4.7774924             -2.7078743              3.2511278
Ar              4.5937347             -0.9629444              1.8693500
Ar              4.3860032             -4.2441177             -0.4695244
Ar             -0.1754942              2.0568129              5.6884735
Ar             -5.4766861             -4.5811310             -0.6634479
Ar             -2.0269323              0.8601795             -4.4633004
Ar             -0.4470658             -1.7703725             -2.3093466
Ar             -1.3639158             -2.8520172             -5.6486972
Ar              3.8794427              2.2439874             -3.5267735
Ar             -5.3516262              1.1832833              2.9473736
Ar              0.7370364             -7.1405918              2.6550131
Ar              6.5013298              0.6246513             -1.1657358
