42
Energy:            -191.6063
Ar             -1.2271792             -2.2607666             -0.1771146
Ar             -1.1045928              1.1916352              0.9582872
Ar              0.7584181              1.7147482              4.0380752
Ar             -1.3028252             -1.4209006              3.4388666
Ar             -0.8319385              4.6550981              2.0311130
Ar             -3.2748250             -0.7450580              6.4830812
Ar              0.9096657              0.2553695             -1.9171489
Ar              4.8429777             -3.0835917              2.0972928
Ar              3.7841652             -0.4317931              4.6132058
Ar             -2.8317339              0.5138459             -2.1367003
Ar              1.2848498              5.2480258              5.0946868
Ar             -0.7685786             -0.4955099             -5.1372893
Ar              1.6690042             -3.6067008              4.0867299
Ar             -6.0392141             -1.3553277             -1.9652052
Ar             -0.7242692              3.7029569             -1.6683752
Ar             -2.3980359              2.9147043             -4.9494349
Ar             -4.3170915             -0.5028477              1.2845806
Ar             -2.9526475             -3.0612031             -3.3571495
Ar              0.8337966             -3.2715291             -3.1084997
Ar              1.8260840             -0.9186814              1.5108062
Ar             -4.5076958             -3.2645604              3.8225294
Ar              1.3867854              2.6958591             -4.6435373
Ar              2.6950764              5.1931010             -2.0579925
Ar             -1.3563783             -5.8361019             -1.3339024
Ar             -4.0497716              3.2238036              0.2713141
Ar             -4.4148873             -4.0971300              0.0958623
Ar              5.2199411              0.5670251              1.1827580
Ar              5.5697295              4.2300276              0.2644387
Ar              3.9113926             -1.8965156             -1.4013397
Ar              4.1856608              3.2463550              3.6800273
Ar             -4.5654683             -0.2436212             -5.3481028
Ar              2.6219640              6.1840801              1.6641276
Ar              0.5769183             -0.9827247              6.6223437
Ar             -1.5332485             -4.1139182              6.0544790
Ar              2.1648972              2.6715392              0.6256044
Ar              2.0944829             -6.7603004             -2.5915770
Ar             -1.4468673             -4.9981536              2.3599413
Ar             -3.0453227              2.0297038              3.9196726
Ar              3.0140563             -0.7383389             -4.8859138
Ar              4.2968322              1.7563721             -2.3209702
Ar              5.1711263             -5.3853236             -0.8945599
Ar              1.7330433             -4.4568921              0.3933023
