42
Energy:            -191.4151
Ar             -1.4682782              1.1938758             -0.1519719
Ar             -4.6107012             -0.6310302              0.0306510
Ar             -1.4879439             -1.7902545              1.9033560
Ar              0.4865014              0.8145718             -3.1716969
Ar             -1.5548059             -2.0123257             -1.8235659
Ar             -1.2484686              4.1439799             -2.2758717
Ar             -1.1829900              4.3912773              1.5566055
Ar              1.7837265              2.7958238             -0.2740663
Ar              1.5342084             -0.9089505             -0.0661660
Ar             -3.3292537              1.0766303             -3.2680976
Ar              1.5305448             -3.9772327              2.0290795
Ar              4.6318698             -3.0503287              0.1072297
Ar              0.5157888             -1.8432017              5.0410799
Ar             -3.2924310             -1.6816242              5.1352631
Ar              3.5338170             -0.8767591              2.9949958
Ar             -6.4505868             -0.9997401             -3.2125955
Ar              3.5824722             -1.3206402             -3.1324599
Ar              3.8190852              2.4841785             -3.3930584
Ar              0.5032599              1.2175910              2.8659668
Ar             -3.3052609              1.3985457              2.9867382
Ar             -4.4677945              3.2442057             -0.2261778
Ar              0.4350363             -2.4607115             -4.9581409
Ar             -3.3807205             -2.2879556             -5.0175313
Ar              0.8071759              3.7383854             -5.4081655
Ar              2.4966188              0.4362363             -6.3191111
Ar             -4.6715543             -3.9904558             -1.7119323
Ar              3.9019288              2.8462015              2.8050083
Ar              4.8820448              0.7334447             -0.2003921
Ar             -4.6190087             -3.7510751              2.1240572
Ar             -1.3101763              0.6247648             -6.4040829
Ar              0.9519704              4.3656079              4.7149150
Ar              2.1421544              5.7808827             -2.4155346
Ar              3.7042843             -3.9218619              5.0996742
Ar              2.6110383              1.1730582              5.9936940
Ar              7.1488929             -1.0907476              2.2255427
Ar             -1.1916231              1.3768847              6.1385376
Ar             -1.6324657             -5.3396448             -3.5635919
Ar             -1.5997589             -5.1335876              0.2389927
Ar              1.5059328             -4.2080962             -1.7599491
Ar              2.2113768              6.0162177              1.4844172
Ar             -1.5165842             -4.8827866              4.0488464
Ar             -2.8237474              4.5707970              4.9222930
