42
Energy:            -188.3468
Ar             -0.7862978             -0.6918751              2.1704788
Ar              0.4007762              3.0357047              2.4666400
Ar              1.3475761              0.3137767             -3.0975590
Ar             -1.9113150             -0.1698505             -1.2573888
Ar              2.9035005              4.5806681              0.1964763
Ar             -2.9445868              2.1500667              1.4296747
Ar             -1.9586106              5.3953263              3.8942055
Ar              2.3725772              0.6773954              0.6191575
Ar             -4.3876633              5.3552218              0.6145032
Ar              0.8267940             -2.4409690             -0.9003366
Ar             -6.7019895              2.1559639              1.2022649
Ar             -0.6781540              6.1517096              0.4596510
Ar             -2.3959078              5.1919597             -2.8835379
Ar             -1.9667008              1.6065291             -4.4603577
Ar             -4.6263224             -1.0837818             -3.6184389
Ar             -5.0858975              3.4807106              4.2505375
Ar             -1.8256883              1.6670419              5.0555892
Ar             -0.1486263              2.9262368             -1.1304690
Ar             -2.7816328             -3.7396171             -1.2982430
Ar              1.7374220              0.3369120              4.6575782
Ar              5.8428193             -3.3618201              1.1551338
Ar              1.0674934              3.8670758              6.0212545
Ar              4.1038671              2.6138593             -2.6593443
Ar              4.4820951             -1.2275771             -1.6523127
Ar             -0.0420156             -5.3815039              1.0435914
Ar              1.7728480              6.3978825              3.3285918
Ar             -5.1364017             -1.0703710              0.1200848
Ar             -1.1151565             -2.2001576             -4.3035705
Ar             -4.5945514              2.3259554             -1.8767717
Ar              5.8872079              1.9183846              0.4603161
Ar              2.5003015             -3.0474893             -4.3087597
Ar              1.0672535              3.7467258             -4.5862716
Ar              3.4912952             -6.2374316              2.3759136
Ar              3.9385104              3.1822832              3.5009593
Ar             -4.6575900             -0.2754398              3.6801425
Ar              3.4124126             -4.9776829             -1.1476332
Ar             -3.1359620             -3.5057709              2.3823047
Ar              0.0865674             -5.5678948             -2.8357048
Ar              5.1106241             -0.3716808              3.2483673
Ar              0.7689283              0.1407430             -6.6900390
Ar              2.3430337             -2.6968932              2.3988023
Ar              4.3424138              0.0456573             -5.3414169
