42
Energy:            -192.5816
Ar              0.1943078              2.0478843             -2.1073912
Ar             -5.0846394              2.3362947             -2.2838089
Ar             -0.1558703             -1.3370132             -0.8583179
Ar              0.5693659              5.5521812             -3.4012262
Ar              2.2172331             -2.1810361              1.7101469
Ar              3.1839683              0.0149147             -1.1700071
Ar             -5.1524403              3.6636957              1.2703266
Ar             -4.8112289             -2.6703822              3.1357090
Ar             -2.6039000             -1.6720350              6.0796008
Ar              1.2799534              4.7702356              0.2419294
Ar             -2.2951107              4.6278974             -1.0638947
Ar             -2.6090785              1.1208636              0.1871694
Ar             -3.5555556             -2.5591676             -0.3962174
Ar              3.2890701              0.4392599              4.1320223
Ar             -2.5348104             -0.2456584             -3.3230218
Ar              4.3468837              2.6515996              1.2188141
Ar              3.6285915              3.4824537             -2.4531300
Ar             -2.2212889              3.2844271             -4.6272035
Ar             -6.0924628              0.0161265              0.6968974
Ar             -0.4856059             -4.6787055              0.5450577
Ar             -4.9955787              0.9657905             -5.8390877
Ar             -1.5990679              3.8278486              2.5827649
Ar              1.1430132             -1.0112491             -4.2450674
Ar              0.8798958              1.2971458              1.4712408
Ar              5.8740973             -2.3311703             -2.1283978
Ar              4.5951404              0.4433448             -4.5615341
Ar              1.5072458              2.5287982             -5.5191137
Ar             -1.6964520             -4.8096285              4.1104996
Ar              1.0503192             -2.3943405              5.2589328
Ar              5.6952666             -0.8867867              1.3976664
Ar              1.9932494             -5.5179237              3.2717894
Ar             -1.2771945             -3.8618478             -3.2360640
Ar             -0.3337476              1.1593554              4.9934640
Ar             -1.3518069             -1.4820574              2.5461037
Ar              4.9032319             -4.5773148              0.8679958
Ar              4.7136128             -3.0547454              4.3722790
Ar              6.9437195              0.0682615              4.7999138
Ar              1.9715955              3.9734036              3.8848526
Ar              2.3960908             -3.7360121             -1.8251753
Ar             -6.0821015             -1.2670052             -2.8826878
Ar             -3.9039011              0.9989834              3.6850460
Ar             -1.3104778              0.3125211             -6.7885100
