42
Energy:            -185.1054
Ar              0.8497262             -0.8185262              0.5537075
Ar              3.9931937              1.1368286              0.0140613
Ar             -0.3908064             -0.1285956              3.8230350
Ar             -2.1769740             -2.4388958              1.6761988
Ar             -2.2863113              1.3877375              1.0096416
Ar              1.6290071             -1.7744515             -2.8107534
Ar              3.9129217             -2.7026511              0.4313958
Ar             -4.8178354              3.1287095             -1.0069642
Ar              3.5077935             -4.8650868             -2.6837899
Ar             -1.0594264              4.5022571             -0.7492552
Ar              5.2253857             -1.0944412             -2.6532275
Ar             -2.0356072              3.1352315              4.2637015
Ar              2.7691328              4.7032594             -0.5999405
Ar             -4.0268612             -0.3415083              4.1223356
Ar              3.0634447             -0.1154562             -5.7686869
Ar              0.8896841              1.6949744             -2.0161827
Ar             -5.5981826              2.5457770              2.5752030
Ar             -3.5227500              5.4981057              1.7709216
Ar             -1.7070378              0.5290585              7.1292738
Ar              1.2339190             -3.4712815              3.1073142
Ar             -5.2117272             -0.6422738              0.2681846
Ar             -1.8447300             -3.1279266              5.4044025
Ar             -7.6756475             -0.5642954              3.1370121
Ar             -5.4727123             -3.6188142              2.6869198
Ar              4.2991269              3.5621219              2.9573704
Ar             -1.3966602             -3.9132774             -3.9362636
Ar              0.1757219              5.9565763              2.6442557
Ar              2.9001381             -6.2492371              0.9474711
Ar             -0.6452114             -0.4463084             -5.3700986
Ar             -3.9364855             -4.0496487             -1.0866265
Ar             -1.9654893             -0.9035618             -1.8352266
Ar              1.0136691              2.5555619              1.7944673
Ar              1.5644714             -1.5257605              6.5413796
Ar              1.6645922             -3.6225384             -6.0208242
Ar              0.9935710              3.0425975             -5.4323217
Ar             -2.3468345              2.3996747             -3.6480694
Ar              3.2814477             -0.2030842              3.3880007
Ar              4.2552463              2.5382539             -3.4390972
Ar              6.7426220              0.5276419             -5.6603017
Ar              1.5344637              2.4788349              5.5315100
Ar              0.1257291             -4.2777906             -0.5574735
Ar              5.3575331             -3.1623279             -5.6964304
