42
Energy:            -193.1831
Ar              0.1219534              1.1512819              0.9428937
Ar              3.2990664             -0.2384447             -0.3813988
Ar             -3.1111663             -4.8711428              3.0244866
Ar              1.3275986              2.1166295             -2.4125819
Ar             -3.5392263              0.8820306              0.9103512
Ar              4.5739613              3.2401573             -0.9227198
Ar             -1.7753399              6.8749905              0.2056380
Ar              1.3376922              4.6396070              0.4562358
Ar              4.5972239              0.7453948             -3.7918270
Ar             -3.3775826             -2.7408118             -0.0957973
Ar              3.3743782              2.2249275              2.5333530
Ar             -1.7939774              3.8768527              2.5953776
Ar             -1.6245145             -0.0928451             -2.1058071
Ar              0.6673390             -4.5983392              3.0455811
Ar              6.9358803              0.2024026             -0.8544559
Ar              1.5910992              1.3239069             -6.0312899
Ar              2.0470180             -1.1978958              2.8918701
Ar             -1.4693917             -0.9404397             -5.7093658
Ar             -6.7827037              1.6949433              2.5231159
Ar              5.6748229             -0.8633971              2.5572114
Ar             -1.8494940              3.4704342             -1.1146648
Ar              0.2322570              1.4603436              4.6892263
Ar             -4.6071660             -1.7335689             -3.5676404
Ar              3.7676124             -3.7915529              0.9411363
Ar             -3.5819161              1.2448718              4.6222272
Ar              0.3086319              5.7066608             -3.0631523
Ar             -1.4232824             -3.7375979             -3.1665892
Ar              3.5159121              4.2941300             -4.4709529
Ar              3.7239787              0.1681942              5.8161716
Ar              1.9930973             -5.0332171             -2.1486001
Ar              0.3330471             -2.4459518             -0.0708582
Ar             -6.5867335             -0.7569634             -0.4457363
Ar             -4.9817459              4.3733215              0.5619566
Ar             -1.1227453             -5.8515198             -0.0488489
Ar              3.9863778             -3.6019449              4.8171057
Ar              1.5823173             -1.4892362             -3.4781496
Ar             -1.5849839             -1.4808688              3.0051898
Ar             -4.8457748              1.8843024             -2.5130433
Ar              0.5383358             -2.1600171              6.0785098
Ar              5.0378832             -2.7676756             -2.4607240
Ar             -5.3163308             -1.7597240              3.0020848
Ar             -1.6640547              2.6900776             -4.6917595
