42
Energy:            -195.0478
Ar             -0.1109161             -0.5456500             -1.3351469
Ar             -3.3560549              0.4198182             -2.6302512
Ar             -1.5555818              2.4910090              0.0077396
Ar             -0.0649449             -3.2744005              1.0282813
Ar             -2.9185168             -0.8701533              0.9179395
Ar              1.4037831             -3.6327307             -2.5315303
Ar              2.8222789             -0.1930335             -3.4503146
Ar              3.0525314             -1.4130563              0.1727214
Ar              0.4050762              0.2223367              2.2153141
Ar             -2.3802363             -3.2987753             -2.0222339
Ar             -1.0601177              3.3272077              3.6312499
Ar              0.4645001             -2.5742268              4.6682987
Ar              0.7133705              5.3145379              0.9149150
Ar             -3.4667020              3.5091233             -4.7370586
Ar              2.7153381              2.9757946              3.1449918
Ar             -5.8316176             -2.3286103             -3.1446724
Ar             -2.4513541             -0.1093541              4.5635074
Ar              3.6538487             -0.6697358              3.7927361
Ar              3.1815864             -4.2559719              2.5911839
Ar              2.1377465              2.1485482             -0.4700054
Ar             -0.1254684              2.3489092             -3.5174560
Ar             -0.6769914             -1.2206597             -4.8645554
Ar             -2.9394437             -3.6895426              3.3733012
Ar             -5.2994686             -3.6350034              0.3705727
Ar              1.4738268             -6.4586270             -0.0386227
Ar             -0.0169365             -6.1352753              3.4590272
Ar             -6.2798758              0.1152305             -0.2761218
Ar              5.4386250              1.3129145              1.0739022
Ar             -4.8792479              3.5596910             -1.2155193
Ar             -2.3739141             -6.1133944              0.4643002
Ar              5.1785224              2.6208089             -2.5052061
Ar             -1.5980821              5.5192916             -2.1165858
Ar              4.6881479             -4.5394565             -0.9207122
Ar              4.4776903              4.9443275              0.4280284
Ar              2.1910850              5.1732846             -2.6012682
Ar             -5.8340029             -1.2127873              3.2588145
Ar             -4.4629646              2.2238037              2.3361413
Ar             -3.0563701              5.6413002              1.3941296
Ar              0.9421494              0.9986002              5.8603733
Ar              6.3509855             -2.3331675              1.7113297
Ar              6.1203631             -1.0417573             -1.8667668
Ar              2.9525694              2.9156194             -5.5552103
