42
Energy:            -194.8099
Ar             -1.3542609              2.0503705             -1.6328206
Ar              3.0431560              4.1047677              0.5116237
Ar              1.6016170             -0.3363170              3.0625744
Ar             -1.2261985             -0.5900308              0.8512766
Ar             -1.5202051              4.7762597             -4.2005452
Ar             -1.2067402             -4.7898165             -3.7974842
Ar             -3.8511283             -0.7205295             -1.5965735
Ar              5.1670396              2.0358400             -1.8685221
Ar             -0.4610601              1.2361315             -5.1638420
Ar              1.8299025              3.4176580             -3.0449648
Ar             -0.9430985             -3.2376235              3.3285776
Ar             -3.0127724             -1.6037839             -5.1226851
Ar              1.9274645              0.7082849             -0.5013150
Ar              0.6933852             -6.3116921             -0.8226521
Ar              4.5296177             -0.0838047              5.3911354
Ar             -7.1515366             -1.9803647             -0.5496997
Ar             -0.1700007              2.7129485              1.8368928
Ar             -4.8459140             -4.0644295             -2.8630061
Ar             -0.8575563              3.7789436              5.3040654
Ar              2.0508699             -2.9773123              5.6061743
Ar             -4.0753611              1.9660996             -4.1737902
Ar              4.8586866              0.9782701              1.7653955
Ar             -2.1516755             -3.9284350             -0.2513777
Ar             -3.8740725              1.8621478              1.2880450
Ar             -0.3135509              5.4912189             -0.6607617
Ar              4.3188003             -5.3159009             -0.1570770
Ar              0.9059172              6.1472136              2.8902668
Ar              4.7552899             -1.6463828             -1.0175238
Ar              2.8882948             -0.1406625             -3.9905200
Ar             -0.3181395             -1.4321317             -2.5583020
Ar              1.9381933             -5.6111824              2.8078313
Ar             -4.4106970             -1.8623250              2.0743970
Ar              0.5911953             -2.3176806             -6.0856083
Ar              2.7322134              3.0489087              4.1609276
Ar             -4.0005449              4.5973066             -1.3034011
Ar              4.4483805             -2.7141956              2.6287988
Ar              2.4635404             -3.8387921             -3.1404384
Ar              1.4996486             -2.8948898              0.3460004
Ar             -2.0072340              0.3382718              4.2798523
Ar             -6.5832573              1.7752707             -1.3100251
Ar             -2.7668379              5.3140137              2.2663256
Ar              0.9735120              0.6438278              6.5689332
