42
Energy:            -186.9329
Ar              1.7516389              1.9868796              0.7520149
Ar             -1.2062193              4.0389058             -0.1438771
Ar              0.5860029             -1.0357272              5.0248763
Ar              2.3384271             -0.4120241             -3.7579241
Ar              1.2913986              2.9965461             -2.7447615
Ar              3.9353241              4.7108588             -0.7618879
Ar             -0.1414873             -2.1131602              1.6000849
Ar              1.1017547              2.6038781              4.3445382
Ar              5.7006733             -1.6342420             -2.4304240
Ar              2.8548398             -1.4554633             -0.1797127
Ar             -2.8683789             -2.0009594              4.0208199
Ar              3.0936744             -3.5209698              3.0154864
Ar              3.3759427              5.5716295             -4.4477768
Ar             -4.6614904              3.7936950              1.3260160
Ar             -2.6534741             -4.8946719              1.4516659
Ar             -2.0029878              4.5212974             -3.7406646
Ar              2.2866512             -4.0061368             -2.8556522
Ar             -5.2912025              0.5498551              3.0039092
Ar             -1.6506313              1.1890508              2.0643906
Ar             -0.3760936             -2.5844258             -5.1607473
Ar              0.8242804              6.6173624             -1.8246032
Ar             -3.5488846             -1.3727374              0.2764087
Ar              4.9328674              2.2128820             -3.5156884
Ar             -0.2306009             -4.7305819              4.2820280
Ar             -5.9740361             -3.2999213              2.3077481
Ar              4.4760549              3.6949476              2.8552087
Ar             -0.4979821              0.0087022             -1.4040714
Ar              1.0680898             -5.4506768              0.5586288
Ar             -1.0152405              1.0860989             -4.9148360
Ar              5.3492436              1.3242119              0.0370916
Ar              6.2942506             -1.9428752              1.4909416
Ar             -1.2261658             -3.6030644             -1.6967563
Ar             -4.0025593             -5.4457750              4.8979226
Ar             -4.6202194              1.9928594             -5.2283233
Ar              4.7226072             -4.8044998             -0.2068742
Ar             -1.8678608              4.6541272              3.5867493
Ar             -3.5591362             -1.3527266             -3.5253052
Ar              3.6676791              0.0823325              3.2360457
Ar             -2.3830884              1.4069572              5.6330609
Ar              1.4087453              5.6016779              1.9088134
Ar             -3.6955142              1.8121245             -1.6293377
Ar             -4.9971147             -4.2910102             -1.4515519
