42
Energy:            -193.2453
Ar             -1.0251645              0.4738865              0.7698874
Ar             -0.5732871              2.6096073              3.6678509
Ar              2.1113848              2.2595286              0.9902349
Ar             -0.7195744             -3.0780571              1.3299350
Ar              1.3720171             -0.6347800              3.2397343
Ar             -3.3415490              1.5029603             -1.8358344
Ar             -1.2469052             -1.7010687             -2.1024701
Ar              2.0251506             -1.2075998             -0.3910291
Ar             -2.3844477             -0.7901964              3.8809451
Ar              5.2629488              0.5898802             -0.1873239
Ar             -0.9644706             -5.3882166             -1.5996938
Ar              3.7167622              3.4646724             -2.1584729
Ar             -0.4905912              6.2962469              3.0402951
Ar              3.5958770             -0.0769343             -3.5554139
Ar             -1.7737099              1.2678146              6.9473149
Ar              2.3738737             -4.8588802              0.1602467
Ar              2.0392364              2.7799167             -5.5130875
Ar              1.8267605             -3.4512618             -3.3439635
Ar             -2.0274010             -4.4944666              4.4867393
Ar             -3.7404520             -5.1746062              1.0151012
Ar              0.4771407              1.6059356             -2.3100329
Ar             -1.1519314              4.0369424              0.1300032
Ar             -4.0126901              2.1677002              1.9675641
Ar              1.7339818             -4.2972194              3.8729719
Ar             -4.0955486             -1.4467723              0.4582651
Ar              0.1100408             -1.9854212              6.4420876
Ar             -0.4009463             -6.7714223              1.9081150
Ar              1.9466144              1.4755180              6.2244537
Ar              2.7046157              4.4444187              3.9166495
Ar             -4.3044897             -3.7463091             -2.5033817
Ar             -1.7402869              2.6545564             -5.0677112
Ar             -5.3978626             -2.9855090              3.6273322
Ar              2.1221754              5.8954952              0.3186658
Ar              0.4548894              5.2261528             -3.0663614
Ar              3.8570269             -1.7877172              5.8042763
Ar              4.6292856              1.1709081              3.5255890
Ar              5.3649625              4.1150493              1.2166766
Ar             -1.5080113             -3.9554004             -5.0896679
Ar              0.2628485             -0.5882947             -5.3294478
Ar              4.5076751             -2.3652738              2.1097368
Ar             -3.5324513             -0.7322385             -4.8477362
Ar             -3.3192703              5.1577953             -2.7000051
