42
Energy:            -185.5328
Ar              0.3632504              0.4360664             -2.0513532
Ar             -0.6371941             -1.4692885             -5.2659800
Ar             -0.8016050              3.7398568             -3.3348675
Ar             -0.6146999             -2.2450693              3.3746933
Ar             -0.1249002              1.0281731              1.8148513
Ar              3.9314665             -0.5495502             -2.0031340
Ar             -2.5613281              1.9925267             -0.5190077
Ar             -3.4343902             -0.4317060             -3.1398990
Ar             -1.8816201             -1.8709934             -0.1123116
Ar              3.3130392              1.7824116              0.8219685
Ar              1.8447163             -1.6465299              0.7167634
Ar             -4.7255067              3.1858330             -3.1519587
Ar              0.3332748             -4.9611394              0.7986927
Ar              2.4876959             -0.2357855              4.1251855
Ar              2.9902667              3.1214970             -2.6107258
Ar              0.5642110              4.1894751              0.0887129
Ar              1.1615075             -3.2013812             -2.4431149
Ar              1.6929211              3.5107183              3.8006724
Ar             -2.0615846              4.0006306              2.7883188
Ar             -2.2841607             -4.0815320             -3.2240785
Ar             -3.6080590              0.5452625              2.7780012
Ar             -2.3994302             -5.4167990              3.6851226
Ar              2.9976154             -3.9286789              3.3138454
Ar             -4.7190016             -2.8857351              2.0575662
Ar             -0.9382173              1.0316443              5.3885786
Ar             -5.4535469              3.6141171              1.1145832
Ar             -5.5190718             -3.2368285             -1.6387148
Ar              5.3658526             -1.1996868              1.7330188
Ar              4.2770084             -4.1013168             -0.4777444
Ar             -5.7433267              0.1418116             -0.2420814
Ar              1.4549371              1.5162960             -5.5391253
Ar              6.3574368             -2.7315199             -3.6437556
Ar              3.7711426             -5.4586053             -3.9375693
Ar              5.2290949              1.0635411             -5.0503667
Ar             -2.8363391              5.6627458             -0.7187692
Ar             -4.9973777             -6.6915871             -3.1436963
Ar             -3.2015393             -5.6358742              0.0306033
Ar              0.4905296             -4.9912798             -5.6954892
Ar             -2.4154087              1.7549126             -5.9867525
Ar             -3.5509016             -2.0028179              5.5712929
Ar              5.3777088              2.1069690              3.8900153
Ar              3.0469333             -1.9952512             -5.3953669
