42
Energy:            -189.2405
Ar              1.4275967              2.0786824             -0.9670685
Ar              1.9856139             -0.7783909              1.1845110
Ar              4.2817255             -0.1360166             -1.6185329
Ar              0.6726310             -1.4828866             -2.1555022
Ar             -1.8786397             -0.8519103              0.8960878
Ar              0.1369912             -3.8049401              0.5778831
Ar             -3.9683293              4.4175270             -2.3696823
Ar             -0.0603054              1.9420269              2.3273651
Ar             -6.4082066              1.6340958             -1.1954892
Ar              4.5587195              3.4990001             -2.3132944
Ar             -1.0238054              4.7181747             -0.0314063
Ar              2.8595557             -3.6341996              3.3420557
Ar              1.8009248              1.1307587             -4.4866791
Ar             -1.7590251             -0.8027195             -4.8612539
Ar             -0.1296867             -1.5449316              4.1086900
Ar              3.0498271              0.4191222              4.4850415
Ar              7.3278277              1.5563653             -0.3172514
Ar             -3.5474389             -2.9563765              4.1172399
Ar             -1.9205393             -4.0947432             -2.6353862
Ar             -0.6829292             -5.4347017              3.6717214
Ar              4.1384719              2.2847921              1.4623334
Ar              2.2177396             -6.7523868              1.2365156
Ar             -3.1127492              0.7368898              4.2482023
Ar             -0.0389957              1.8919574              6.0403507
Ar             -5.4923477             -0.8195928              1.6254829
Ar             -1.4593546              3.0309381             -5.2085577
Ar             -1.3325963             -7.0675137             -0.1688772
Ar              1.4767868             -5.5735545             -2.4250992
Ar             -3.6327734             -4.1482576              0.6516059
Ar              2.6029985              5.4369936              0.3030246
Ar              3.6432502             -2.7963889             -4.0565679
Ar              2.1578160              4.2877167              3.9929581
Ar              1.0677757              4.9185388             -3.2156540
Ar              5.5803695             -1.1526642              1.9208471
Ar              0.4011739             -3.7135743             -5.5438941
Ar             -4.3068428             -1.3869737             -1.9330453
Ar             -1.9263113              1.4161041             -1.9403445
Ar             -4.7709018              1.3771384             -4.5267867
Ar             -3.6910980              2.5066669              1.1089677
Ar              3.8021921             -3.6181395             -0.3402408
Ar              0.1536324              7.1725735              2.5727225
Ar             -2.0704892              4.4806865              3.9559156
