42
Energy:            -187.7900
Ar              1.0014267             -1.0205498             -1.0390182
Ar             -2.0026342             -2.8179848             -0.4996358
Ar              1.0301217             -3.7461351              1.1710028
Ar              0.4502707              1.9444925             -2.8861340
Ar             -2.1772377              0.7864497             -0.5790447
Ar              4.0826198             -2.9455769             -0.9856122
Ar              1.1184970              2.1055077              0.6425570
Ar             -0.6911553             -0.6787082              2.4432626
Ar              3.9293550              1.0009548             -1.4741388
Ar              3.1110550             -0.7167648              2.0538337
Ar             -1.5239677              4.3564674             -0.8652776
Ar             -3.0876747              2.3338131             -3.8245560
Ar             -4.3862868             -1.1738961              1.7459709
Ar             -4.9886829              2.6972338              0.7197664
Ar              3.2469100              2.9881812             -4.9095626
Ar             -1.4373935             -1.1668608             -3.8471490
Ar             -0.9989688              1.1756526              5.8042988
Ar              4.4960554              3.4122717              1.3296085
Ar              6.0033059              0.4444164             -4.4711162
Ar              0.7710355             -4.2295354             -2.7212804
Ar              0.0834645              7.6515404             -0.9834573
Ar              4.1952437             -4.4064562              2.7537396
Ar              2.0473771              2.3618961              4.1191600
Ar             -4.5872261              1.4332998              4.4210696
Ar             -5.0288472             -4.6913281              0.0400504
Ar             -0.1372137              1.5051801             -6.4089413
Ar             -2.3761309              6.5260813              2.0691627
Ar              2.4396642              4.7529066             -1.5882498
Ar             -4.8822346             -1.2301275             -2.1470740
Ar              0.8908212             -3.0475002              4.7762886
Ar             -2.9514536             -1.8924898              5.2484115
Ar             -1.1772221             -6.4257106             -0.2949358
Ar              2.3829248             -0.8770608             -4.4394839
Ar             -2.2295550             -4.4679054              2.7680287
Ar             -3.0606626             -4.6740913             -3.4087894
Ar              6.0205209              3.8775739             -2.4017990
Ar              2.7599701             -6.5603871             -0.3200375
Ar             -1.7748136              2.8831620              2.5759707
Ar             -0.1843035              5.2118231             -4.3335862
Ar              1.2159463              5.4800896              1.9434892
Ar              0.8947150             -6.7447886              3.1722373
Ar             -0.5021410              5.0066198              5.2855461
