42
Energy:            -187.0646
Ar              1.4398615              0.2311465             -0.2225798
Ar              0.9727134             -3.3166637              0.7245534
Ar             -1.3878745              2.2593574              1.0270346
Ar              0.2040856             -0.4653966              3.1402977
Ar             -1.1615970              1.1259670             -2.5351960
Ar              3.4505804             -2.2935932             -1.8927671
Ar              0.2455370              3.2845764              4.2456346
Ar             -1.9870827             -1.2972507              0.2352729
Ar             -0.2130524             -2.5223716             -2.6798124
Ar             -0.5236589              4.6887464             -1.6900545
Ar             -1.8471362             -5.2389571             -0.6252125
Ar             -4.5097776             -0.3910861             -2.4069030
Ar              2.5405152              2.8230662             -2.6848777
Ar              3.4266624              1.6681554              3.5032441
Ar             -2.9364171              1.4452188              4.3437258
Ar             -0.7422933             -2.6307824              5.9459778
Ar             -0.1864358              3.2523016             -5.3263324
Ar              5.7315043              4.2294978              2.0990787
Ar              1.7122104             -0.1394805             -4.6705058
Ar             -3.6330501             -3.7842890             -3.5388416
Ar             -0.8565603              5.9361943              1.8601629
Ar              2.0647974              3.7955819              0.8712847
Ar              6.9270103              0.4465774              2.8734432
Ar             -3.5032966              6.8362719             -0.6294171
Ar              2.1807289             -4.4228653              3.9934846
Ar             -3.6568262             -2.0298611              3.4599630
Ar             -4.9304656              0.7028312              1.1833060
Ar             -1.9666888             -0.9420209             -5.5268031
Ar              2.8118035             -1.1981040              5.7583927
Ar              4.8708188              1.3518833             -0.0913306
Ar              1.7173797             -5.6593846             -2.1312640
Ar              3.8551267             -1.6088879              2.0615754
Ar             -1.4517540             -4.8956827              3.0446386
Ar             -2.9901715              5.7296779             -4.2421965
Ar              4.3216336             -4.9950190              0.6361564
Ar              5.3547706              0.3718397             -3.6286856
Ar             -4.2510600              4.3192747              2.1872012
Ar             -4.0294876              3.2406983             -1.4534284
Ar             -3.8510842              2.2081884             -5.0560364
Ar              6.7644451             -1.8880396             -0.2728197
Ar             -5.0602352             -3.2467023              0.0823881
Ar              1.1225038             -7.0006140              1.3261219
