42
Energy:            -190.4506
Ar              0.8291258              0.4760594             -1.5492399
Ar              2.6775504             -1.6621410              0.8856885
Ar              3.5978570              2.0375748              0.3650755
Ar             -0.0765969             -2.9389584             -1.2279107
Ar             -1.3645879              3.8671374              3.5428070
Ar             -2.2519120              0.8517518              0.4491776
Ar             -2.3972957             -0.6149834             -3.1046403
Ar             -1.8835267              3.0550630             -2.6647823
Ar             -3.7231160             -2.9145771             -0.5270451
Ar              3.5371269              0.2353657             -3.9982094
Ar              0.7351549              0.8992073              2.4799542
Ar             -2.4991379             -3.1263515              5.5393737
Ar              0.2609532              3.6276532              0.2514550
Ar              0.1411886              1.2969872             -5.2343107
Ar             -5.5916047              0.4089019             -0.8504230
Ar              5.7849902             -0.5208321             -1.0733928
Ar             -2.3993051             -4.4277664             -3.6950642
Ar             -4.7613658             -1.3173864              2.6212312
Ar              2.1853640             -5.3440800              0.4931078
Ar              0.9668427             -1.7128321              5.1061092
Ar             -3.1277533              4.9599422              0.3344268
Ar             -1.1421856             -2.2375383              2.1146537
Ar              0.6780876             -2.3259821             -4.7407725
Ar              2.0138665              3.6302079             -2.9190735
Ar             -2.2079161              0.4527118              4.6150570
Ar              0.0417642             -5.3307122              3.5886474
Ar             -0.2887983              6.4906586             -1.9737595
Ar              1.0134418             -5.9395976             -3.1063954
Ar             -0.2095903              5.0323743             -5.5261007
Ar              5.6379552              3.0613714             -2.6143781
Ar             -1.4758822             -6.0872572             -0.1085081
Ar              3.2633782              3.2124428             -6.3440421
Ar             -3.7414145             -4.9941798              2.6064612
Ar              3.6192547             -3.8566772              3.7147507
Ar              2.4588861              4.1570354              3.2370951
Ar              4.0616552              0.2428546              3.8167126
Ar              3.2398372              5.8010267             -0.1609159
Ar              5.6995993             -3.9091382              0.5733472
Ar              0.0762299              6.9282797              1.8187993
Ar             -4.8028058              2.4392100              2.5846377
Ar              1.0531088              1.9725732              5.9796698
Ar              3.4747201             -3.1709950             -2.4086707
