42
Energy:            -187.7302
Ar             -0.6720501              0.3048524              3.3012898
Ar             -0.7908073              2.9580713              0.6997800
Ar              2.2857364             -1.9854629              3.0121387
Ar             -2.1625567             -0.5159967              0.0596653
Ar             -3.9058376              1.9161734              2.1670486
Ar              2.2040355              0.3127799              5.8315059
Ar              2.4054412              1.4020252              1.4513549
Ar             -3.9207908             -1.6468487              3.2868567
Ar             -0.5666455             -2.5886585              5.5683036
Ar              1.2804583             -1.3879999             -0.5102059
Ar              1.0392373              3.4372385              4.2102987
Ar              4.8107325             -4.6502239              3.2825272
Ar              4.9251246             -1.2853140              0.5611287
Ar              5.5666711             -1.0839470              4.3567356
Ar             -0.8273177             -3.2385535              1.9021856
Ar             -6.9373861              2.9831507              0.2061528
Ar             -3.8239467              2.1650984             -1.7537363
Ar             -3.8460375              5.2638417              0.3293415
Ar              4.7672053              2.5426035              4.0383952
Ar              3.0971525             -3.3247572              6.3887302
Ar              1.1340415             -5.5697657              3.9711228
Ar             -5.8115839             -0.6243217             -0.0157454
Ar              2.2909885             -4.8032447              0.4449477
Ar              3.2691203              5.2327132              1.8899726
Ar             -0.1286457              6.5299140              0.7168875
Ar             -4.0157425             -3.9509402              0.2617143
Ar              3.5615796              0.6885607             -2.4342341
Ar             -2.2289376              4.9757684              3.6291867
Ar              6.0866438             -4.8176811             -0.2071040
Ar             -0.8561851             -4.0779988             -1.7570660
Ar              0.9030343              7.1574032              4.2623997
Ar             -0.2326183              1.3359514             -2.5664671
Ar             -7.1568464              0.6868860              3.3125828
Ar             -6.0518642              4.6019263              3.5002062
Ar              0.7419257             -1.7657419             -4.2568402
Ar             -1.0598501             -6.7497279              0.9553417
Ar              5.5892285              2.6088352              0.1938730
Ar             -2.9065301             -5.3064805              4.0317704
Ar             -1.3443654              4.9293562             -2.4927888
Ar              3.7901114             -3.1282604             -2.6102820
Ar             -3.0123715             -1.3238726             -3.3500219
Ar              2.1537973              3.9769841             -1.3650115
