42
Energy:            -190.8609
Ar              0.3294002              0.1511252              2.7521096
Ar             -2.9702217              1.7617351              2.4077919
Ar             -0.5236397              1.2552172             -3.2585489
Ar              0.2706113             -3.1440133              1.0349825
Ar             -0.1247844              2.8040208              0.2294399
Ar             -0.6039595             -1.4014083              6.0005265
Ar             -1.3594861              5.1078030              2.8989292
Ar             -1.7913500             -0.4218408             -0.2824513
Ar              6.9578124              2.3739400              1.3857192
Ar             -2.7079312             -1.9275781              2.9279508
Ar              3.9538851              0.3308386              2.3249817
Ar              3.5818843              3.0711269             -0.2148154
Ar             -0.8846920              2.3818249              5.4696798
Ar             -6.3073409             -2.1300486              3.7765893
Ar             -5.3431620             -0.5599436              0.4982527
Ar              1.8385473             -0.2258075             -0.6479864
Ar              3.4612479             -2.4383559             -3.1394528
Ar             -1.9495442              5.8645440             -0.7890288
Ar              5.4698590              2.6645826              4.8136498
Ar             -3.6523261              2.5467948             -1.2711853
Ar              2.4341821             -2.6544601              3.9872803
Ar              5.5982528             -1.1723186              5.3921483
Ar             -4.0101911              0.2550652              5.6715107
Ar             -1.0963792             -6.5758039              0.9631757
Ar             -3.2308077             -3.7705734             -0.3855906
Ar             -3.7182590             -3.5058377              6.2063422
Ar              3.2084902              1.4470080             -3.6588016
Ar              2.0494758              3.4410926              3.2365882
Ar             -0.2663620             -2.6561356             -2.7250704
Ar              2.4352911              0.7390578              5.8061956
Ar              7.2048504             -1.4315318              1.9859598
Ar              4.0098071             -3.0263351              0.6051223
Ar             -4.2550935              4.0263076              5.1417021
Ar             -0.6677824             -4.7646794              4.2912179
Ar             -4.8960096              4.7859020              1.4776877
Ar             -4.1985497             -5.3171801              2.9032407
Ar              1.5547109              6.1575211              0.6799485
Ar              1.1656873              4.5804167             -2.7553841
Ar              5.5659590             -0.0427883             -1.1216557
Ar             -6.5784785              1.6982973              3.2369319
Ar              2.6618237             -2.5039650              7.6863354
Ar              1.8509429             -5.4700283             -1.3611765
