42
Energy:            -185.6330
Ar             -0.2914452              1.6486382              0.5061010
Ar              2.5610525              0.0882674             -1.2115650
Ar             -2.8119375             -0.2050754              2.5432023
Ar             -2.1906288              3.3970610             -2.3656621
Ar              2.2526109             -0.1967210              2.3429259
Ar              5.6699507             -0.1184156              0.7208768
Ar              2.9027319              0.8074567             -4.8461584
Ar             -6.3314393             -0.0935123              0.7131325
Ar              4.9148090             -2.3192169              3.6936504
Ar             -5.8225228             -1.8220784             -2.6658090
Ar             -5.8275105             -2.0985029              3.8026634
Ar             -0.1050478             -0.2446577              5.0963019
Ar              3.3551462             -3.1914062              0.2132656
Ar             -0.3567735              0.1818119             -3.2184506
Ar              5.4165311             -1.6185300             -2.7283052
Ar             -5.8603160              2.2822663             -2.1799461
Ar              1.5226335              3.4329620             -2.4636833
Ar             -0.2046415              5.2241586              0.6448144
Ar             -2.1130857             -3.0956517             -2.8085751
Ar             -5.8342991              1.7272830              3.9079194
Ar             -0.2992319             -2.0598731              0.2777763
Ar              1.2462718              3.0961610              3.7718709
Ar             -3.1576146              0.0476640             -1.0517271
Ar             -2.3314819              2.9151156              4.4696548
Ar              3.2807862              3.1218319              0.7598850
Ar             -3.7552765              3.0947893              1.0031853
Ar              5.3246386              2.2703502             -2.2851884
Ar              4.9353349              1.7670665              3.9170208
Ar             -1.4299380             -5.5514989              1.6899997
Ar             -4.0104583             -3.1341306              0.5670616
Ar             -0.4132279              2.8570117             -5.7132772
Ar              1.2634238             -3.5624800              3.3917181
Ar              6.6176620              0.6675536             -5.4769841
Ar              1.8634385             -2.7177212             -3.4781390
Ar              0.6427331             -5.3898449             -1.3112200
Ar             -3.6556584             -0.2104611              6.2679026
Ar             -7.5042193              3.4982811              1.0070224
Ar             -3.6499931              0.6219877             -4.7432425
Ar              4.3731162             -2.3426485             -6.2909700
Ar             -4.9202009             -5.7147807              3.1671415
Ar              6.9968739              3.3642275              1.0262879
Ar             -2.3172442             -3.2809698              4.4716613
