42
Energy:            -190.1172
Ar              2.3940270             -1.1751630             -0.2530207
Ar             -1.5228698             -3.0552187             -3.1595152
Ar             -0.0257264              1.0199070              1.4133022
Ar             -1.7669607              3.0245449             -4.2859336
Ar              2.3073951              2.5328811             -0.8865015
Ar             -2.5178120              3.1804538              2.9687450
Ar              0.4744101              1.6024804              4.9700852
Ar              0.1851930             -5.2403495              2.3494986
Ar              2.0119806             -1.8909667             -3.8727626
Ar             -4.5576555             -2.7638578             -0.7738123
Ar              1.9045821              1.8774180             -4.5504379
Ar             -1.0905277             -2.3119436              0.4536797
Ar             -4.7973179              3.2780161             -1.9902182
Ar              1.2781362             -1.7746390              3.2681963
Ar              1.0983819              5.2816711             -3.0380226
Ar              0.0385742              7.1224623              0.1144309
Ar              3.7641007             -4.0563824              1.6478512
Ar             -2.2368746             -5.7388768             -0.5633127
Ar              1.8962517             -1.3177935              6.8824709
Ar              5.9463026             -1.0050415              0.8156642
Ar             -2.3689566             -0.6087418              3.6717088
Ar              2.6268589             -4.6735548              5.2211661
Ar              1.3407718             -4.6054804             -1.2378687
Ar              3.4189247              1.1972933              2.4579235
Ar             -0.4533950              0.3374610             -2.1251349
Ar              4.7587781              4.5216503              3.3711694
Ar             -1.0110627             -3.5540015              5.5666751
Ar             -5.8538037             -1.0714213              2.3604657
Ar              4.0846363              1.7436717              6.0456156
Ar             -6.8781152              0.2005083             -1.1061658
Ar             -1.3338672              3.7298470             -0.6191791
Ar              4.8241683              0.3642566             -2.6034184
Ar              1.1522285              4.3170252              2.3448743
Ar             -0.9131908             -0.3770659             -5.7808997
Ar             -6.0281452              2.7241473              1.6282952
Ar              4.8254700             -1.6504802              4.4198934
Ar             -3.9064903             -0.1343688             -3.4575306
Ar             -3.3692539              0.6200952              0.1746756
Ar              5.8866331              2.7759563              0.1526561
Ar              3.6254615              5.8719225             -0.0667090
Ar             -3.4687800             -4.0704503              2.6617710
Ar             -4.5529662             -5.1873685             -3.6172704
