42
Energy:            -184.6661
Ar              0.1965370              0.5671031              0.3901658
Ar             -2.9254236             -1.4264010              0.3760827
Ar              0.2592503             -3.0340707              1.4864308
Ar              2.1953091              3.3301167             -1.0636076
Ar              3.3694822             -0.9939646              1.4154957
Ar             -0.5097542              4.1303039              1.5106328
Ar             -2.3796638              1.2434689              2.9457838
Ar              6.2298890             -1.4473361             -0.8299508
Ar              3.0332527             -3.7712002             -1.0381345
Ar              3.5120579             -4.4422825              2.7180312
Ar              5.7098920              2.2639067             -1.5910373
Ar             -2.9452098             -5.0353731              1.4011785
Ar              0.7528436             -0.3790511              4.0127284
Ar             -2.9537742              2.1991618             -0.6948085
Ar              1.7136236              6.8379632              0.0412521
Ar             -0.2086255             -2.1413154             -2.0687577
Ar             -3.4172994             -0.5344635             -3.2412949
Ar              2.9170555             -0.1748571             -2.2083768
Ar              2.6100732              2.3963369              2.4887332
Ar             -1.8872798              0.1646929              6.6251173
Ar              2.1752049              5.8912718              3.6415874
Ar             -0.9843344              5.0918838             -2.0731083
Ar              0.0511710              3.1208433              5.1303271
Ar              4.3094668             -0.0180648              4.9347028
Ar             -5.7830759              0.8356827              1.2943265
Ar              0.7412978             -3.8536763              5.2345072
Ar             -2.4139572             -2.3151648              3.9316525
Ar             -0.3904644             -4.8710320             -4.6112667
Ar             -4.2744439              4.3095728              2.1396833
Ar              4.9030736              4.9157272              1.0834642
Ar              0.3469373             -6.5785037              2.6445549
Ar              6.2037119              1.3740775              1.9721193
Ar             -0.2750128              1.5333204             -3.2034886
Ar             -5.2793644              0.1062541              4.9318825
Ar             -6.2544331             -2.0078163             -1.1827027
Ar             -3.3279403             -4.1736646             -2.2365423
Ar              5.1409249              3.7525247              4.7887673
Ar             -0.5496749             -1.2566416             -5.6785549
Ar             -5.0763748             -3.3935800              6.2714980
Ar             -5.7874796             -2.7875232              2.5004377
Ar             -2.4865182             -5.8744133              5.0455713
Ar             -0.1369051             -5.8000154             -0.9923827
