42
Energy:            -184.9389
Ar              0.1171634             -1.4376646              1.2427771
Ar             -2.7681005              0.7024493              0.3780004
Ar             -2.1034588             -2.1829536             -1.7301044
Ar              1.4862783             -1.3976393             -2.1471553
Ar              0.5717987              2.2552115              0.2656879
Ar              2.7677072              1.9537648             -2.8124692
Ar              3.5798766              0.0333016              0.4281400
Ar             -3.1991282             -4.9923511              0.3339321
Ar             -4.6198650              0.4631619             -2.8731768
Ar              2.8844854              5.3182141             -1.1073685
Ar             -3.0179844             -2.3390012              2.9573476
Ar              0.4593603             -4.7103403             -0.7538481
Ar              3.8659794              3.4075624              1.8334460
Ar              1.0183096             -0.4140559             -5.6657917
Ar              0.4207773              1.7485248              6.8014801
Ar              2.4784788              6.8404394              2.3632684
Ar              3.5313975              3.5496849              5.5157535
Ar             -1.7003223              0.9914166              3.8419670
Ar              4.6084587              0.5259100             -5.8296798
Ar             -3.3376983              3.8806020              2.1596101
Ar             -2.6134936             -1.3822644             -5.3746637
Ar             -8.0955175             -0.6356953             -2.1430078
Ar             -3.2228266              3.8101905             -1.5999919
Ar              3.1939996             -2.7333412              2.8805900
Ar              3.6522076             -3.0401021             -4.6326338
Ar              5.6427252             -0.6862843             -2.4663988
Ar              0.1251996             -1.9629386              5.1930063
Ar             -0.0493898             -3.9266297             -4.4042343
Ar             -5.3327112              0.6125318              3.2134333
Ar             -5.4303593             -1.7938631              0.1870282
Ar              5.5481368              0.5462994              3.7245244
Ar             -0.9959867              1.1302756             -2.9431231
Ar             -0.5989915              5.7780666              0.3011555
Ar              1.9203775              0.7792135              3.5625775
Ar             -5.2992741             -3.2502486             -3.2685725
Ar              0.0252151              4.6214613             -3.3030749
Ar              4.0199443             -3.6415023             -0.7944380
Ar              2.9999163             -6.3028751              1.6208740
Ar             -6.2514167              2.1327242             -0.0175509
Ar             -0.2215735             -4.8337478              2.8688054
Ar              0.2861838              4.0925295              3.5631103
Ar              6.6691389             -1.9376252              1.1415492
