42
Energy:            -189.6638
Ar              0.0677430              1.2252743             -0.1546728
Ar              3.3468932              0.1218202             -0.7449289
Ar             -3.3479648              2.1453742             -0.0258830
Ar              0.8916703             -1.9706280              1.9443197
Ar             -2.0751782             -0.1223585             -3.2122490
Ar             -0.2849773              4.9084336              0.1798763
Ar             -0.9580155              3.3897392             -3.0953879
Ar              0.6690685             -2.1665366             -1.6710328
Ar             -2.8768034             -3.3276678              3.1749702
Ar             -1.6960629              0.3421966              3.0662992
Ar             -5.2572086             -0.4581190              2.1665406
Ar              4.8353847             -0.4263429              2.4728681
Ar             -4.6084952              2.5334016             -3.6313859
Ar              2.6504772              3.6200763             -1.8786433
Ar             -2.3872824             -1.5011883              0.0849357
Ar             -3.5224272              5.3068867              2.0745606
Ar             -0.4654948              3.7032045              3.6551044
Ar              0.1319557             -5.3584898              3.9177620
Ar              2.7587061              2.9332897              1.7533991
Ar              1.4920861              0.6599039             -3.8500625
Ar              6.7198573             -1.1716967             -1.1382885
Ar             -4.2965821              2.5407697              4.3670789
Ar              1.9214236              3.8786366             -5.5810120
Ar             -1.1114818              1.5245302             -6.3894678
Ar              2.3767602             -6.5307390              1.2152104
Ar              1.8049034              0.6555936              4.4497675
Ar              0.1705105             -2.5067168             -5.2932196
Ar              3.8437308             -3.3824242              0.0767753
Ar             -0.3274272             -2.0951464              5.6241160
Ar             -5.5089509             -0.5691518             -1.6242095
Ar              1.7536251             -5.5087817             -2.4690967
Ar              6.0345922              2.5041740             -0.1086278
Ar              3.8384090             -2.3048149             -3.5904183
Ar              5.1600926              1.3815878             -3.7163987
Ar             -4.0177572             -0.9429735              5.7767940
Ar             -0.9137733             -4.9119910              0.3262709
Ar             -6.6065398              3.0450194              1.3236346
Ar             -4.9962395             -4.0240936              0.1075911
Ar             -3.6452731              5.5576083             -1.6246218
Ar             -1.2608876              1.4959231              6.5953370
Ar              3.4703050             -3.6543399              3.9100441
Ar             -2.5260473             -3.8118850             -2.8733145
