42
Energy:            -185.3948
Ar             -0.4217744              0.6116657              1.2999885
Ar              3.1125614              0.1631138              0.8090133
Ar             -2.3727403              0.1312512             -1.7329238
Ar             -3.9992654              0.8590724              1.5175485
Ar              2.0773372             -0.7635397             -4.3107379
Ar             -1.9439621             -0.6295971              4.3723927
Ar              1.5997511              0.9347228              4.3080490
Ar             -2.3511416             -2.4485934              1.0255351
Ar              5.3283962              0.4332465              3.7514954
Ar             -6.0866773              0.3940986             -1.5520055
Ar              0.6624743             -1.9095307             -1.0926709
Ar              4.6575654              1.2399340             -2.4121471
Ar             -1.9044984              3.6217178             -0.1742312
Ar              0.9656765              1.7979699             -1.8392370
Ar              4.3048331             -2.4260564             -1.5837043
Ar             -4.3476650             -2.9743743             -2.0108816
Ar             -6.0954087             -2.2332763              1.2160704
Ar              4.7054384             -2.9653798              2.1310679
Ar              1.0514126             -2.4402406              2.6560752
Ar              5.3496181              3.0817733              0.9157109
Ar              1.5964605              3.6335543              1.4494730
Ar             -1.0044662              1.3214223             -4.9872843
Ar              1.8282715             -4.4806997             -3.5823346
Ar             -1.6083707              3.1314802              3.6378090
Ar             -4.4001931             -0.3517916             -4.8510697
Ar              4.9594237             -2.9452325             -5.2366493
Ar             -5.6907307             -0.4444754              4.5641995
Ar              3.9293501              3.9029924              4.3540908
Ar             -1.3034385             -2.4319699             -4.2297619
Ar              2.4775166              2.9246402             -5.0642025
Ar             -5.6609337              3.8330197              0.0454229
Ar              2.1595535             -5.0524473              0.1858978
Ar             -1.2859069             -5.0666143             -1.4682065
Ar              3.2431934              4.7286242             -1.7712118
Ar             -0.9696944             -5.6189927              2.3067507
Ar             -0.5890122             -3.8824606              5.6739059
Ar             -3.9657405              3.0846615             -3.2872898
Ar             -7.7414440              1.1488393              1.7746985
Ar             -4.0002381             -3.8228530              4.0104625
Ar             -5.3917714              3.3367397              3.8648744
Ar             -7.5022813             -2.2831553             -3.8545428
Ar             -4.4657601             -4.0710087             -5.5629072
