42
Energy:            -193.9721
Ar              0.2404693             -0.7320918             -0.1581888
Ar             -2.4373543             -0.4886344             -2.6332745
Ar             -1.6159869              2.3763700             -0.1789198
Ar             -0.3812002             -2.7232799              2.8273796
Ar             -3.1000408             -0.7492805              1.2157895
Ar              2.0690170             -3.8806705              0.2368557
Ar              3.6682736             -0.5159884             -1.3369881
Ar              2.8160311             -0.8449865              2.3959500
Ar             -0.3706123              0.9761897              3.0576668
Ar             -1.6855884             -3.7704592             -0.6816257
Ar             -2.2691473              4.1537459              3.0831631
Ar             -1.0002972              2.7228486              6.3484403
Ar              0.2059670              5.5751206              0.5865456
Ar              1.4778835              4.1113360              3.8354138
Ar             -1.0147967             -1.0541543              6.1161333
Ar             -6.5950656             -0.8018374              2.6059422
Ar              2.2500551              0.8803950              5.6882944
Ar              2.2441234             -2.9007134              5.4767313
Ar              2.0356516              2.3236331              0.5773048
Ar              0.7984058              1.4479165             -3.0418450
Ar             -3.8273425             -2.8350604              4.2413028
Ar              1.4940357             -5.9233755              3.2948850
Ar             -0.4353881             -0.8594508             -5.9545576
Ar              5.6290222             -3.6665697             -0.8605817
Ar             -1.0388202             -4.8250459              5.8821193
Ar             -5.9149256             -0.5255636             -1.1435236
Ar              4.7316064              2.2718870              3.1660866
Ar             -2.2999349             -5.8424283              2.4144468
Ar              5.5731177              2.6011509             -0.5405543
Ar             -1.0400762              4.8234953             -2.8768650
Ar             -5.0931704              2.4068105              1.2491641
Ar              4.7851346             -3.9547772              2.8350528
Ar              3.9318074              5.4924293              1.2928660
Ar              2.6995543              4.6154004             -2.2203314
Ar             -5.1418929             -3.8143738              0.7913071
Ar              1.0783444             -2.6417197             -3.1357399
Ar             -2.2062063              2.2921211             -5.3081629
Ar             -4.4999412              2.7544109             -2.4447027
Ar             -3.5468540              5.6132869             -0.1453323
Ar             -3.8036713              0.9522444              4.4931012
Ar              5.4949775             -0.9516733              5.0375401
Ar              6.3471204             -0.6632131              1.3370304
