42
Energy:            -191.3493
Ar             -2.3635308             -0.8487358              1.6986852
Ar              0.0447445             -5.4703196              2.4679660
Ar              0.6544399              0.3113538             -0.0021015
Ar             -5.4815788             -2.0359220              3.4253034
Ar              1.5332979              3.8064141              0.5480842
Ar             -2.1046840              2.6172872              0.3290332
Ar              3.7157395              1.4819165             -1.5885802
Ar              1.3962402             -4.1987927              5.7936324
Ar             -3.1750700              0.4958996              5.0789075
Ar             -2.0501922             -3.1284198              4.6221717
Ar             -2.7558548              4.9512213             -2.4500752
Ar              1.0094878             -1.9119347              2.8384765
Ar              0.7564409              5.1642219              3.9798961
Ar             -0.2901476             -3.1382288             -0.4806567
Ar             -2.9135550              4.0442092              3.6886940
Ar             -4.9690855              5.0251849              0.6479517
Ar             -5.2350471              1.4979088              2.0414045
Ar             -3.3958505             -4.3745634              1.2599787
Ar              3.7582096             -4.3694559              2.8142109
Ar             -0.6784777              4.8805495             -5.6304737
Ar              3.3996156             -2.0767199             -0.1757811
Ar             -1.2891846             -6.6954895             -0.9013349
Ar              0.2705314             -0.5921098              6.2595026
Ar             -2.2973060             -0.3050012             -1.9862729
Ar             -0.0960815              1.6408068              3.2977583
Ar              2.4070735             -5.6988941             -0.4842075
Ar              6.2231299             -1.5066517              2.2347817
Ar             -5.4139876             -1.5070154             -0.3362084
Ar              6.2669571              1.5112136              4.5768789
Ar             -1.8353846             -1.7114269             -5.3601853
Ar              4.3582642              4.4040485              2.9551966
Ar             -1.3427885              6.1892586              0.9391613
Ar              6.5795618              2.0716478              0.8162173
Ar              2.7103218              2.2787107              5.6564438
Ar              3.3874950              0.8939357              2.2461096
Ar             -5.1763574              2.0519716             -1.7229935
Ar             -2.9789038              1.9532478             -4.8360883
Ar             -0.8516116              3.0229898              6.7071730
Ar              1.2819217             -1.1166108             -3.2964127
Ar              0.1512543              2.5512293             -2.8016432
Ar              3.8397054             -1.3497388              5.2023176
Ar             -3.3293533             -3.8536666             -2.5167427
