42
Energy:            -189.9255
Ar             -0.1293434             -1.1745777              0.4664349
Ar             -0.4899086              0.4747631             -2.7966814
Ar             -1.9490606              0.6039981              2.9846747
Ar              1.8730974              2.6679843              2.5972355
Ar             -0.9125049             -3.5087502              3.3450328
Ar             -0.3926589             -4.8355529             -0.2688132
Ar             -1.2387757             -1.2276896              6.3281068
Ar              3.6448485             -2.5735725             -5.2934044
Ar              2.0752537              5.2449723             -0.0018328
Ar              0.6267226              4.0099244             -3.1454734
Ar              2.3952317              1.4906405             -0.8924837
Ar             -1.5222747              4.3699038              3.3231906
Ar              3.0915210             -5.7859634             -1.4445676
Ar              2.5381319             -3.6273119              1.6080794
Ar              4.3495395             -0.4259322              1.4372865
Ar              0.2303391              2.1440296              5.8507328
Ar             -0.7864335              2.6638894              0.1496517
Ar             -3.8913025              0.1235575             -4.3745066
Ar              0.6277272             -4.7118363             -4.0018395
Ar              4.6027937             -2.5092909              4.6049399
Ar              2.3196522             -2.0660737             -1.9517088
Ar             -3.3281571              0.2598439             -0.6208404
Ar              1.4524731             -0.7413743              3.7468634
Ar             -4.7590538              2.2215949              4.5957015
Ar             -4.3620808             -1.8306254              4.3892639
Ar             -2.2362247             -2.7220399             -2.6319982
Ar             -3.5958115             -3.0098294              0.9028553
Ar             -4.3242146              3.4295775              0.9843716
Ar              2.5927209              1.0210993             -4.6532087
Ar              5.6684720             -3.2375090             -0.5988624
Ar             -1.0632877              2.1903633             -5.9766984
Ar             -3.0381035              3.3780278             -2.7234445
Ar              4.4881498              1.3124760              4.7893227
Ar             -0.0994833             -1.5304385             -5.7792046
Ar             -6.1018519              0.0633025              1.6722062
Ar              2.4370381             -0.6857048              7.3034263
Ar             -1.7091488              6.1148947             -0.3556126
Ar             -5.9751727             -1.9617087             -1.8515383
Ar              5.2128792              3.1502341              0.8855512
Ar              4.4331542              3.8569730             -2.8113494
Ar             -6.4088254              1.8351959             -1.8368585
Ar              5.4537222              0.1045578             -2.3179524
