42
Energy:            -188.1260
Ar              0.3727635             -0.7555684             -0.2044510
Ar             -1.2068623              0.1331374             -3.4895325
Ar             -2.0164346             -0.7147132              2.4898113
Ar              0.6540509              1.9883722              2.1501878
Ar             -0.2161031             -4.0274271              1.2908691
Ar              0.2453336             -3.6300954             -2.4925093
Ar             -1.1064245             -3.2258545              4.9379832
Ar              2.8289523              0.9836579             -6.4223201
Ar              0.1461581              5.4489859              1.0260134
Ar             -1.8756423              4.8768245             -2.1216617
Ar              0.9697066              2.6099680             -1.4156387
Ar             -1.4699534              3.9343575              4.3868911
Ar              3.6668461             -3.8391495             -4.0664963
Ar              3.1907056             -3.1383091             -0.2881771
Ar              3.7136240              0.5457972              0.1723219
Ar              1.2269966              1.4179419              5.7746625
Ar             -2.4716972              1.6634476             -0.2423816
Ar             -4.9220605              0.0021949             -2.8912553
Ar              0.5640181             -2.2078956             -5.9197669
Ar              2.3836666             -0.5234185             -3.1431548
Ar             -2.8128104             -2.1701529             -0.8825230
Ar              1.7509478             -1.3374114              3.1663458
Ar             -2.3031471              0.4677606              5.9772913
Ar             -3.8391735             -4.0514428              2.1182059
Ar             -2.8884463             -3.1703633             -4.4189415
Ar              2.2057174              4.7615658              4.1664921
Ar             -2.5478797             -5.8135667             -1.1833691
Ar             -4.4230553              2.0188872              3.2249659
Ar              0.4549081              3.4675538             -4.8664373
Ar              5.9030432             -1.2426162             -2.2217088
Ar             -3.3501742              2.8336835             -4.8304219
Ar             -5.4200872              3.4460131             -1.5696196
Ar              4.2354633              1.6167734              3.6154117
Ar              5.4176442             -1.8692320              2.4451717
Ar             -0.8930476              0.9736280             -7.2168213
Ar             -5.0960904             -1.5103653              4.5071922
Ar              2.9828028             -4.8284349              3.1158850
Ar             -3.5068036              5.0096840              1.2843534
Ar             -4.2380120             -0.4295804             -6.5280028
Ar              3.6529065              4.1606220              0.7077410
Ar             -5.5499961             -0.5030381              0.8238132
Ar              4.3182336              2.6019097             -3.0124546
