42
Energy:            -185.8586
Ar             -0.8315702             -0.2984026              0.0154133
Ar              1.9609709             -3.1660375             -0.2397343
Ar              2.7211560              0.2294926              0.9634852
Ar              0.2447584             -1.5859276             -3.1994597
Ar              1.3570293              1.7707986             -2.1106284
Ar              0.0383489              1.7250460              2.9920267
Ar             -1.2740381              3.3569131             -0.0397629
Ar             -2.8725314             -0.6154559              3.0717971
Ar             -5.0121418             -3.1362210              1.4537521
Ar             -1.5362974             -3.8448194              0.4164849
Ar             -4.2715286              1.2126607              0.0678767
Ar              2.9689816              0.1959255              4.7646936
Ar              5.2683602              2.3313028              2.6328160
Ar              3.9209295             -0.9747262             -2.4148954
Ar              2.4297453             -4.5371674             -3.6484443
Ar              4.9877147              2.4124302             -1.1659891
Ar             -2.2671716             -4.1995842              4.0625887
Ar             -3.5790125              6.0885805              0.8503491
Ar              3.8998743              2.0272346             -4.7869062
Ar              0.5322889             -1.9883331              2.9965384
Ar             -7.1607586             -0.9925854             -0.7703013
Ar              0.6476229             -6.6246958             -0.9510085
Ar              2.2735723              3.9483659              0.9153262
Ar             -0.6381656             -0.3569608              6.0923993
Ar             -2.7073232             -1.4136044             -5.4895751
Ar              3.0174398             -1.4948560             -5.9411369
Ar              2.5042481              3.9357004              4.7043284
Ar              4.1190656             -2.8678798              2.7939922
Ar              0.0912002              6.7601937             -0.5056950
Ar             -2.2448292              1.4060442             -3.0662799
Ar             -1.0296235              3.3977101              6.1299454
Ar              6.2742838             -0.7408118              0.5402152
Ar              0.0641851             -3.6750395             -6.4640387
Ar              2.7642109              5.1199724             -2.6868937
Ar             -6.4883555              0.1982317              2.8676127
Ar             -0.5091517              5.4675484              3.0039317
Ar             -2.1587741             -7.2365690              1.6831319
Ar             -1.6107809             -4.7466457             -3.2647973
Ar             -3.6281358             -1.8900560             -1.8987261
Ar              1.1512745             -5.5676793              2.6224533
Ar             -3.4611306              3.0659032              3.1901285
Ar              0.3174104              1.0941487             -5.7611798
