42
Energy:            -193.0414
Ar             -1.3177024              1.0074187             -1.4796390
Ar              0.4031133              2.8839672              1.2440792
Ar             -1.7155340             -0.0706260              2.0613685
Ar             -4.1700583              2.5097795             -3.3977744
Ar              1.5921582              0.4272293              3.8920072
Ar              2.1952549              2.1960869             -1.9732498
Ar              1.4844083             -0.4422607              0.3700348
Ar              2.4303965             -3.8255879             -0.5743255
Ar              0.4865219             -3.0157381              2.6578932
Ar              2.9888210              5.3172684              2.2488468
Ar             -2.7928168             -2.7145104              4.4407196
Ar              5.3305427              1.9690391             -3.9070794
Ar              4.1317603              1.8229648              1.4054670
Ar             -4.5381279             -2.2991940              1.0778971
Ar             -1.2318670             -2.6215866             -0.6320795
Ar              1.1474832              5.6733135             -1.1147566
Ar             -0.6015256              3.7332803             -3.9067973
Ar             -4.1179036             -1.1962870             -2.5406686
Ar             -5.0052911              0.3050408              3.8248646
Ar             -0.4003311             -6.0806510             -1.6112618
Ar              0.4610146              3.8656140              4.8236026
Ar             -4.0291516             -4.8939258             -1.6683467
Ar             -2.2995075             -5.3241847              1.6826524
Ar              1.1727270             -1.2345901             -3.1370110
Ar             -2.8593370              3.3391988              3.0139787
Ar              4.2837126             -1.5582809             -5.0892429
Ar             -0.5582029             -5.7268566              5.0341090
Ar              1.3081844             -6.5270446              1.7842258
Ar              2.0594009             -4.6597468             -4.2153903
Ar             -1.6474472              0.2207468             -5.1006757
Ar              3.0824819             -4.6962068              4.6761560
Ar             -0.6859967              6.3506476              2.1632709
Ar              4.8332801              4.6008826             -1.0512887
Ar              4.1573341             -1.2914674              5.9756008
Ar             -4.6060104              1.4131653              0.2155699
Ar             -1.6941326              0.7911375              5.6574060
Ar              1.9343397              1.4415613             -5.6189642
Ar              4.1827465             -1.9808480              2.2691381
Ar             -2.4394838              4.4466926             -0.6169023
Ar              4.6292150             -0.7740114             -1.4151629
Ar              0.5010846             -2.2736476              6.2883382
Ar             -1.5830519             -3.5030527             -4.2328219
