42
Energy:            -186.5668
Ar              1.9559272             -0.3468787              1.2940588
Ar              0.7574882              3.0446791              1.9050339
Ar              0.2781177             -2.5249517              4.7448291
Ar              0.4738298              1.4249010             -1.5267672
Ar              0.9095178             -2.0537589             -1.8680980
Ar             -0.5503565             -3.1826850              1.1942374
Ar             -2.5751437             -0.6975931             -0.6076407
Ar              1.6007737              0.9864220              4.8769339
Ar             -2.2268439             -3.9554247             -2.2455052
Ar              2.6383582              3.3029124             -3.8547302
Ar             -2.3744047              2.8461019              0.2242224
Ar              4.0130200             -3.1418959              0.1814500
Ar             -1.4106846              6.1572985              1.8125560
Ar              4.0043690              0.0084304             -1.9591938
Ar              0.8890334              4.9704353              4.9627796
Ar             -1.3252933              0.1419347              2.6991394
Ar             -4.1884157             -3.7279824              1.0065628
Ar              1.4815818             -5.5474691             -1.1810352
Ar              3.6655634              3.2217486             -0.2588611
Ar              0.3911729              5.0398649             -1.2165970
Ar             -1.7363234             -0.5719492             -4.1564105
Ar             -1.2056996              3.2478767             -4.1920319
Ar              3.8910968             -2.0945644              3.8852959
Ar              0.3171863             -3.8532573             -5.0033383
Ar              2.0184277             -5.2796051              2.6605067
Ar             -2.4912272              3.3380493              4.0052456
Ar             -3.2292628              5.6633122             -1.9340225
Ar              3.6698898              6.5383084             -2.0612104
Ar              4.1339642              3.3152557              3.4472732
Ar             -4.9060899              0.7881383              2.0161627
Ar              0.6949297              6.5130444             -4.5880131
Ar             -1.8265972             -5.4917526              3.8027397
Ar              1.8415856             -0.2212389             -4.9695292
Ar             -0.9652368             -7.2159399             -3.4964922
Ar              2.6506538             -6.8269819             -4.5388112
Ar              3.8426806             -3.3766008             -3.6273748
Ar             -4.3702089              1.8842025             -2.6869200
Ar             -1.7502662             -6.6694848              0.2705341
Ar             -5.0807641              4.8522673              1.5641993
Ar             -3.5804125             -2.1805984              4.3434327
Ar              2.4759439              6.3145257              1.6545635
Ar              5.5528865              0.3490674              1.4725381
