42
Energy:            -188.0602
Ar              1.5198089              0.0177360             -1.0323492
Ar             -0.6911441             -3.1627971             -0.5716864
Ar             -0.8200668              2.7002282             -0.5979740
Ar              0.5263707              1.4918071              2.5281795
Ar              1.0354972             -1.9614402              2.2232104
Ar             -2.0395052             -0.3723454             -2.3923535
Ar             -5.4046848             -1.4272768             -3.4426313
Ar             -2.9666735              2.8895588              2.7163942
Ar             -2.2982867             -0.3898946              1.2385181
Ar             -2.1343476             -3.8551627              2.8130286
Ar              2.0494489              3.2485848             -3.1012718
Ar              3.0728965             -3.2911649             -0.6884113
Ar              0.7095033             -2.3856563             -3.7986268
Ar             -2.7429244             -4.2473032             -3.3653596
Ar             -1.5745250              4.5279343             -3.6433463
Ar              4.1423345             -3.5576588              3.1272601
Ar              2.7615979              3.3509635              0.4672495
Ar              0.6985345             -5.9312115             -2.5000825
Ar             -4.4437239              2.0083819             -0.8646657
Ar              2.3810974             -0.2522443              5.2525813
Ar              4.0405835              0.1166408              1.8342859
Ar             -0.0095413              5.0704794              2.2895837
Ar              0.8529873             -3.9054776              5.2709779
Ar              5.0858078              1.4156827             -1.5870601
Ar              3.2073500              3.4007351              4.1465662
Ar             -4.3930453             -3.0519055             -0.2111622
Ar             -3.9300199              1.8066312             -4.7078294
Ar             -2.4503249             -1.6019549             -5.9404714
Ar             -2.9649971              5.5944663             -0.0467169
Ar             -0.1937865              1.2224883             -5.1018513
Ar              1.0749194             -5.6229654              1.6026469
Ar             -1.3847408             -0.6654714              4.8649966
Ar             -2.3586387             -6.3742740             -0.1255036
Ar              0.7901736              6.1703917             -1.1269455
Ar             -2.4993401              6.0237694              4.8422454
Ar             -0.3225023              3.0171699              5.6892999
Ar              3.3105436              6.6908248              1.9469298
Ar              1.1022514             -1.5117509             -7.3764052
Ar             -0.4069170             -4.9139958             -6.2330783
Ar              4.5986560              5.6756741             -1.6769653
Ar              1.3657712              6.4600722              5.4119754
Ar              3.3456919              0.0204948             -4.5594835
