42
Energy:            -188.8698
Ar             -0.1083022              1.2827215              0.5296704
Ar              0.6465806             -2.3134222              2.5377409
Ar             -3.1867793              1.0931504             -1.1642248
Ar             -0.0802395             -0.3563467             -3.4876399
Ar             -1.6715105              4.7409906              0.1913501
Ar              0.4412349              4.0174615              3.2299760
Ar             -3.4765018              4.8707223             -3.0705168
Ar              6.4939149              0.2429004              2.9013648
Ar              0.6384917             -3.9893148             -3.3544491
Ar              0.8642678             -5.1451488              0.1723478
Ar              2.0964620             -1.6661414             -0.7100358
Ar             -3.6063926             -1.8887114             -3.5939674
Ar              4.2440495              3.9758123              3.3220977
Ar              2.1451047              4.3981634              0.0428226
Ar              2.9848456              1.5201091             -2.0196150
Ar             -2.9753668              1.6052515             -4.8613211
Ar             -1.3838079             -2.1940523             -0.6953733
Ar             -1.8778800             -2.7124776              5.2812625
Ar             -0.2256149              0.6318671              4.4037520
Ar              3.1315757              4.8945970             -3.5595588
Ar              3.1031225              0.8196472              1.8227754
Ar             -2.7406928             -0.7573448              2.2105085
Ar             -0.2055937              3.1724113             -2.7716464
Ar             -6.5855684              0.3869158             -2.1587972
Ar             -5.4177113              3.8157004             -0.0407836
Ar              2.2733365              2.6258028              6.2307663
Ar             -3.1161188              2.7757098              2.8327788
Ar             -5.0260470             -2.5205517             -0.1675662
Ar              4.3018557             -2.8985440              1.9932584
Ar              5.7201072              2.9023620              0.0564109
Ar             -1.6830534              3.4185741              6.3208821
Ar             -2.4844866             -4.5083021              1.9717301
Ar              1.9940308              1.8621082             -5.6117948
Ar             -4.0218373              0.3847889              5.5035298
Ar             -6.0805497              0.5885519              1.7135367
Ar              0.0975232              6.8361381             -2.3202895
Ar             -2.7089844             -5.3596540             -1.8069638
Ar              3.1935960             -0.9071010              5.0557175
Ar              3.5142218             -1.5118345             -4.1275288
Ar              4.2425765             -4.4246037             -1.6495035
Ar             -5.4502849             -2.7253322              3.6748245
Ar              5.6733401             -0.7970216             -0.7945492
