42
Energy:            -187.3250
Ar              0.9009674             -0.3889688             -0.8041616
Ar             -0.6711886              2.4099738              0.8263275
Ar              2.0891741             -3.4753965             -2.2754239
Ar             -1.3111669             -3.3085549             -0.9880646
Ar              4.3566896             -1.5390363              0.2636070
Ar              3.2583442              2.0817465              0.2769005
Ar             -1.7116512             -5.0418730              2.2814591
Ar             -1.3952706              2.8675772             -2.8259752
Ar             -1.4232204             -1.2148490              2.0057341
Ar              0.4485788              5.6615610              2.2883324
Ar              1.3929914              4.8679958             -1.2676304
Ar              1.4142265             -3.3793565              1.3171580
Ar              2.0978239              1.8644872             -3.4250985
Ar              4.2335399              5.5023463              1.1992587
Ar             -2.8485708             -0.0380109             -1.1464604
Ar             -4.5865664             -2.7755121              0.6290836
Ar             -2.0632062              5.8884415             -0.5033245
Ar              4.2563141             -5.3821436              0.2561868
Ar             -1.0162655              1.6138642              4.4269109
Ar             -4.5186150              3.1504473             -0.5898810
Ar             -4.0350595             -2.9944652             -3.3331833
Ar             -3.1327121              4.3551942              2.8073009
Ar             -3.8035553             -2.6648417              4.3654962
Ar             -3.4794818             -6.2007227             -0.9214029
Ar             -0.7311162             -5.3102520             -3.9608585
Ar              4.1421870             -3.1205673              3.7186044
Ar              5.4669863              0.5313499             -2.5226751
Ar              3.2332395             -1.3187586             -4.9789632
Ar              5.4779161              0.6223655              3.1271145
Ar              1.9006268             -0.1545626              2.8851447
Ar              2.7213416              3.2390038              3.8634620
Ar             -3.8583000              0.6261182             -4.6366802
Ar              0.5310226             -6.5084164             -0.4719596
Ar             -0.5645258             -1.2267990             -4.0464503
Ar             -5.3200489             -5.8705673              2.5653115
Ar              6.9044163              2.6851687              0.3393053
Ar             -4.3767734              0.8007875              2.3446688
Ar              0.2631669             -2.9984621              4.8216433
Ar              5.7167117             -3.3692737             -2.7525281
Ar              3.2396157             -6.8089383             -3.1707323
Ar              1.8270741             -6.3709074              3.2808673
Ar              4.8840815              4.2636205             -2.4102958
