42
Energy:            -190.3877
Ar             -0.7110648             -0.4828893              1.8729692
Ar              1.8700186              0.6119391             -1.1324585
Ar              2.9566303              2.4290537              1.8177652
Ar             -1.5575187             -1.2484268              5.3841321
Ar             -3.1153848             -2.8678545              0.1425051
Ar              1.8332222              0.0329909              4.5889249
Ar             -1.4133319             -0.2615981             -1.9709455
Ar              0.8001182             -3.5661357              3.2428602
Ar              3.1184534             -1.3126371              1.5353151
Ar             -3.8777873              0.7773143              0.2705615
Ar              1.2506595             -1.5679003             -4.1696348
Ar             -0.7200236              2.8014843              0.4340408
Ar              0.6209428             -2.8329242             -0.5644324
Ar              3.9378178              3.0139839              5.4391290
Ar              5.7223312              0.3402095              3.4606560
Ar              0.3176528              2.2857779             -4.0404282
Ar             -2.7541117             -4.4216042              3.5266228
Ar              0.3743343              3.4305059              4.1895750
Ar              2.7535754              4.0641392             -1.7143636
Ar             -4.8281549             -1.1233594             -2.9069508
Ar              4.4179391             -3.2154998              4.3415024
Ar             -2.1320259             -0.3473811             -5.5369325
Ar              1.5773931             -2.9040377              6.8676480
Ar             -2.1289026              5.6970803              2.6206553
Ar              3.3359931             -4.9644835              0.7942331
Ar             -0.7214935             -5.9580178              0.6140709
Ar             -6.8220030              1.9280985             -1.6142496
Ar              1.3423263              5.7994328              1.2695507
Ar             -3.3746359              2.5513854             -3.1442882
Ar             -0.9431930              5.3875521             -2.0695749
Ar              4.0566855              1.0619435             -3.9915649
Ar             -4.2877090              4.3802739             -0.0276289
Ar             -2.9714005              2.1025490              3.5487416
Ar             -6.6239418              2.0385667              2.2719162
Ar              4.1308602             -2.3372159             -1.9188187
Ar              6.4878840             -2.6409584              1.0946802
Ar             -4.6301722             -1.2150659              3.2684538
Ar              1.8144743             -5.2869606             -2.9210357
Ar              5.5276741              0.8539395             -0.4051512
Ar             -1.7954549             -3.6934930             -3.3127752
Ar             -6.8423232             -1.4314362              0.2674987
Ar              4.6070651             -0.4879174              6.9935426
