42
Energy:            -188.2082
Ar              1.5085082             -0.3195551             -0.4583511
Ar              3.3258273             -0.4513465              2.7005594
Ar             -0.0809267             -2.1291940              2.4605169
Ar             -0.0491835              2.7887295             -1.4343082
Ar              0.2349786              1.8185340              2.1722864
Ar              2.8888157             -2.2487630             -3.3061092
Ar              2.9093456              1.4689069             -3.3208841
Ar              3.2318766             -3.3872226              0.1642816
Ar             -0.5455046             -0.4386110             -3.5290202
Ar             -2.0930662             -0.0033091             -0.0224614
Ar              3.3762712              2.7275288              0.3192930
Ar             -3.8095807             -1.3160751              3.0000226
Ar             -5.8477146              0.4026725              0.3603589
Ar             -2.6959885             -4.8448566              2.5519234
Ar              2.1145514              1.9547917              5.3357387
Ar             -4.2364249             -2.9946115             -0.3012476
Ar             -1.3877381              0.4986443              5.1685671
Ar             -3.7417597              3.2068997             -1.0629019
Ar             -4.2453675             -0.0075715             -3.0265435
Ar             -2.1437924              2.8381868             -4.4890029
Ar             -0.4930123             -3.2194124             -1.1401363
Ar              3.4283307             -4.1795687              3.6796625
Ar              5.1988539             -0.3403400             -0.8269606
Ar              0.1698621             -3.9809440             -5.0018053
Ar             -1.3304723              5.1066598              1.2091666
Ar              4.7147248              4.6466967             -2.6468570
Ar              1.2720812              4.6692994             -4.3655208
Ar             -1.6733021              6.0438073             -2.4494793
Ar              2.0688096              5.0088199              2.9230852
Ar             -3.2185665             -3.5200287             -3.7661289
Ar             -1.0391079              4.1922459              4.8670485
Ar              1.7483883              5.9752941             -0.7618672
Ar              0.2329597             -5.4478885              4.9872698
Ar              4.1546612             -6.9092765              0.8931371
Ar              1.8266734             -5.9289445             -2.2119547
Ar             -2.3442802             -6.3270847             -1.0534611
Ar              0.6427432             -5.7546281              1.3363973
Ar              2.0178043              5.4899208              6.6841812
Ar              0.8240141              1.4675261             -6.4204265
Ar              1.4503282             -1.8205010              5.8182619
Ar             -2.2846777             -2.9912186              5.9244668
Ar             -3.4633831              2.3658037              2.5938012
