42
Energy:            -191.9218
Ar             -0.1553624             -0.2756037              3.2535717
Ar             -3.4024461              0.3063697              4.7996446
Ar             -3.0459977             -0.5645539              1.0974927
Ar              1.8539465              2.6566573              2.5511932
Ar             -1.8662509              2.7708625              2.2936682
Ar              1.6677052             -3.3196562              4.0780766
Ar              2.9814051             -0.7487478              1.5145508
Ar              0.1202743              0.8514290             -0.2310308
Ar             -0.2439535              2.3896556              5.7076733
Ar             -2.8128140              0.5838642             -2.4796185
Ar              5.1059845              2.2461205              0.7679043
Ar             -3.0441384             -3.1053606             -1.6211355
Ar             -5.3338668             -3.4147280              1.5690208
Ar             -3.5719985              3.1882280              7.2020042
Ar              2.1652616              3.8663745             -0.9917543
Ar              0.0436935             -5.4593370             -1.9033937
Ar              3.3122908              0.3964466             -2.0563757
Ar              1.8184990              5.4590337              4.9739863
Ar              4.9556142              3.1979545              4.4804155
Ar             -0.0557700             -2.8136764              0.6918471
Ar             -2.2569049             -3.1995349              3.8055960
Ar             -0.4280955             -1.3259878              6.7223814
Ar              0.1487412              5.8347630              1.5673779
Ar              2.8776452              0.1135075              5.2345257
Ar             -1.9937603              5.5763044              4.7099816
Ar              3.9349396              5.7078977              1.8191607
Ar             -5.1653826              3.5080687              3.7793499
Ar             -6.4068366              0.1221692              2.5550186
Ar              6.1457907             -0.2608649              3.4230451
Ar              2.0600523             -5.8077491              1.2902684
Ar              2.8886870              2.9893696              7.6496625
Ar             -2.4108032             -5.6720887              0.9800595
Ar             -0.3969769             -6.5037187              3.9929632
Ar             -3.6366096              5.9403317              1.2952356
Ar             -4.8613527              2.5513114              0.0788758
Ar             -6.0650520             -0.8404031             -1.1285309
Ar              6.2551050             -1.2176616             -0.2765418
Ar              3.1991770             -3.2960455             -1.1889625
Ar             -1.6133456              3.9821160             -1.2533167
Ar              5.0052854             -3.7299398              2.2864851
Ar              0.2255199             -1.7302779             -2.8970044
Ar             -0.2188464             -8.6216373              0.5079100
