42
Energy:            -184.6315
Ar              0.7658530             -1.5306300              0.9003115
Ar              4.4402926             -1.2666243              0.4629262
Ar              0.4024262             -4.0463709             -1.8430941
Ar             -2.5202410             -2.1321437             -0.6788515
Ar              2.4502234              1.6840339              0.3200420
Ar             -3.8374175              1.1003011              0.6651836
Ar              0.2256723              4.5810987              0.0149514
Ar              0.8126251             -3.0196237              4.4328001
Ar              2.3987615             -0.8087080             -2.5168205
Ar              2.3336191              3.9181494              3.2348885
Ar             -0.5772275              1.7045433              2.3405547
Ar             -4.0077318              0.5056599             -2.9567880
Ar             -2.3346479             -1.5085432              3.0040035
Ar             -4.4004574             -3.1081018             -3.8063370
Ar             -0.6977141              1.0422982             -1.3496118
Ar              2.0082534              3.0059610             -3.0438990
Ar             -0.9776982             -1.4054928             -4.1278553
Ar              2.6763531              0.0932508              3.6466853
Ar             -2.9418192              3.8975272             -1.8497789
Ar              4.0518678             -4.2412595             -1.8727383
Ar              3.0115559             -4.4087201              1.7361787
Ar             -3.6454524              1.6943144              4.4617707
Ar             -6.0865121             -0.8055491              2.8730273
Ar              5.6325307              1.7698462             -1.4471408
Ar              4.0496000              4.9328380             -0.1334349
Ar              5.9457755             -1.8071046              3.7206076
Ar             -6.1822004             -1.8163260             -0.7525258
Ar              5.2864366              4.6529512             -3.7899631
Ar             -3.0762813              4.5093073              1.9069894
Ar             -7.1732304              1.6915387             -0.8797815
Ar             -7.3916000             -0.3874695             -4.0754985
Ar             -4.6308838             -4.1664158              1.7085160
Ar              6.4813812             -1.5967830             -2.6719361
Ar              5.5809861              1.9852869              2.2970476
Ar              8.0227816             -0.4067007              0.6585971
Ar              6.8295539             -4.0415577              0.6719840
Ar             -0.8991139             -4.7873634              1.5919605
Ar              4.6287082              0.9784562             -4.9381100
Ar             -0.4047438              0.2895713              5.7837445
Ar             -6.5535614              2.9861086              2.5617630
Ar             -6.0853420              3.4607901             -3.9511061
Ar             -6.0675494              5.2321496             -0.4226841
