42
Energy:            -186.3768
Ar             -1.3579788             -0.9964465              1.2118123
Ar              1.6084860              0.2006876              3.0555671
Ar              0.1349947             -3.8487269             -2.2418454
Ar              1.1130745             -1.1569907              6.5054532
Ar             -0.7901400             -0.3036047             -2.4030898
Ar              2.1231265             -1.0960232             -0.3437952
Ar             -3.8231928             -2.0949069             -1.6015209
Ar             -3.6101457              1.5230955             -0.6672521
Ar             -2.5611136              2.3681914              2.7875158
Ar             -2.3321644             -0.6400681              4.8698349
Ar              2.1140387              1.8811468             -2.8463624
Ar              0.0037062              2.0998728              0.1775619
Ar             -0.2062736             -7.3495746             -0.8375740
Ar              3.5502660              2.4756946              0.6229182
Ar              5.1635474             -0.5942418              1.8398677
Ar             -1.9647318             -4.4415400              0.6722836
Ar             -0.1505232             -3.3491083              3.7777734
Ar             -1.3668430              3.3382295             -3.1066616
Ar              0.4771722              4.7269700              2.6258923
Ar             -4.9073011             -0.9840008              1.9471616
Ar             -3.2253952             -5.6519253             -2.5808649
Ar              4.5382489              0.0950672              5.5524577
Ar             -2.2583332              5.0725153              0.0813478
Ar             -3.7950340             -4.1136112              3.8305735
Ar              3.4966979              3.3644328              4.2172177
Ar              1.8333551             -4.6255124              0.9514559
Ar             -5.6830042             -4.5100762              0.5211720
Ar              3.4751984             -3.1056098              3.9903596
Ar             -0.1252729              0.9743402             -5.7860002
Ar             -3.7722474              0.6731057             -4.3612626
Ar              5.2742446              0.2441942             -1.9174392
Ar              3.7951850              6.1285477              1.4910378
Ar             -3.6636612             -7.7048840              0.7665352
Ar              1.5388143              4.9041007             -4.9065985
Ar             -0.6000431             -6.9703018              2.9752276
Ar              1.4419397              5.1182652             -1.1634962
Ar              0.0171600              2.3674898              5.5631492
Ar              0.1727366              7.9884511              0.7391183
Ar             -1.0960372              7.1198730             -2.9309294
Ar              2.3372085             -1.5481108             -4.1538642
Ar             -1.9977299             -2.6134705             -5.0148887
Ar              4.8895592              4.3081592             -2.3484747
