42
Energy:            -186.0713
Ar             -0.7385878             -1.1265425              0.9473202
Ar             -3.3918737              0.9615057             -0.4751061
Ar              2.5777497              0.5941730              0.8757238
Ar             -0.9673965              2.3796682              2.0510575
Ar              1.5000556             -1.8657038             -1.7923051
Ar             -3.8966539             -2.6630144             -0.2463762
Ar              2.2459822              1.6427653              4.4165621
Ar              0.0077687              1.6131924             -1.4914187
Ar             -1.9028480             -1.1099212             -3.0585353
Ar              4.0119674             -2.9196210              0.7266648
Ar             -3.2126672              2.2601232             -3.9776783
Ar              2.2115033              0.6541381             -4.3649941
Ar              0.7260424             -4.5684551              0.9943313
Ar             -0.9994413              0.0570305              4.9924309
Ar              3.7837498              3.9913357              1.9700464
Ar             -2.2765538              6.0015006              2.2208282
Ar              2.6272332             -5.2927946             -2.2440576
Ar             -0.0759114             -3.0746870              6.7947552
Ar             -1.1752043             -4.5891313             -2.1458756
Ar             -0.9049505              0.5270507             -6.2957730
Ar              5.2243194             -0.3750199              3.2820471
Ar              1.7663190             -2.0081560              3.5726510
Ar             -3.8979225             -2.1010690              6.2301224
Ar              7.5492085             -1.6634659              0.5613912
Ar             -4.8117576              3.2229932              1.9853156
Ar              0.7986592              4.9858810              0.0352534
Ar              3.4620578              3.0796707             -1.7828083
Ar              0.3949747             -2.9627054             -5.2318958
Ar              0.8393874              5.0717689              3.9800716
Ar             -1.7957119             -3.4585310              3.5091721
Ar             -5.6199424             -0.5736404             -3.0224000
Ar             -3.8911551             -0.3404954              2.8787277
Ar             -2.6421355              4.4723602             -1.1186596
Ar              6.2323942             -4.0601820             -2.0448953
Ar             -6.7722245             -0.1730182              0.5779551
Ar             -2.8361495             -5.9947736              1.0031290
Ar              6.3800429              1.8998893              0.4873225
Ar              4.9177254             -0.4339846             -1.9289042
Ar              4.0090565             -2.6931193             -4.7056315
Ar             -5.5025899             -3.7000586              2.9591851
Ar              0.2161557              4.0567388             -4.1104331
Ar             -6.1977125              3.0061874             -1.6254537
