42
Energy:            -191.7667
Ar              0.0318330              0.8061609             -0.1962686
Ar             -1.2772340              2.8114890              2.6123180
Ar             -4.3194009             -4.8417126              0.0407861
Ar              2.3375304              2.1076820              2.3864666
Ar              1.2014068             -2.5090392             -1.3075267
Ar              5.2673956              1.8237601             -3.1650288
Ar              2.4335191              3.5192335             -1.1601911
Ar              1.0456703              4.1894283              5.2811696
Ar             -0.8393590             -4.2038461              1.3744226
Ar             -1.2528262              4.2409704             -0.9232795
Ar              1.7001479              0.5591633             -3.5107040
Ar              2.4464683             -1.7911331             -6.3315141
Ar              1.6184680             -1.5211329              2.2461589
Ar             -5.4984953             -1.4312249              1.1668156
Ar              3.8647896              1.7134259              5.7525195
Ar             -4.2319941              4.8459549              1.3790726
Ar             -3.5824672              1.4883085              0.0477266
Ar              3.1329835             -2.0329131              5.5913211
Ar             -1.9199974              6.1680009              4.0554324
Ar              1.9744148             -4.8262181             -4.0905161
Ar              3.6491588              0.0848141             -0.3882694
Ar             -1.9704888              1.2883475             -3.3085684
Ar              2.3916223             -5.0163550              3.2274941
Ar             -4.7514994              1.5850217              3.5264866
Ar              1.0952254              5.5746695              1.7366990
Ar              5.6741927              2.9147116              0.7565198
Ar             -0.4119107             -3.1885170              4.9828199
Ar             -4.7263698              3.8316676             -2.5101517
Ar             -0.8053077             -2.1434879             -4.4356507
Ar              4.3674032              4.9372600              3.6647422
Ar             -3.1603786             -0.7888958              5.9907464
Ar             -1.9922399             -0.8186689              2.4670229
Ar              1.9375209             -6.0449283             -0.4319381
Ar              4.4750857             -2.1277966             -3.1769489
Ar             -3.8918711             -3.7740428              3.6601614
Ar             -2.4154247              2.9494225              6.1497447
Ar              0.3147152              0.5016062              5.1213822
Ar             -2.4370525             -1.8296487             -1.0924935
Ar              4.4357184             -3.3831385              0.5165899
Ar             -5.4339256             -0.2055602             -2.6460802
Ar             -1.3021768             -5.2155261             -2.2436987
Ar              5.1878440             -0.3657881              2.9033202
