42
Energy:            -186.1949
Ar             -0.2336724              1.1608681              1.7878507
Ar             -2.0791481             -1.2095589              3.6773094
Ar             -3.6321040              0.7508763              1.0350294
Ar              3.1200573              1.5075861              2.7781220
Ar              1.5256942             -1.9400941              2.8561367
Ar             -2.0260278              4.1252848              0.5334744
Ar              2.1816479             -0.3826565             -0.4317282
Ar             -1.2447692             -1.9910240              0.1881668
Ar              1.5995640              3.2791256             -0.4111107
Ar             -1.1339578              1.0789223             -1.8346621
Ar             -1.4971084             -2.6638917             -3.4271234
Ar              5.3189611             -1.1976199              1.8830974
Ar              1.5794970             -5.6499238              2.8315184
Ar             -1.9948998             -4.7731150              2.5186138
Ar              3.4828117             -3.8482047              0.1246421
Ar              4.1056305              4.9923158              1.9263712
Ar              3.2793834              1.6464626             -3.3609654
Ar              0.5373079              0.8754367              5.4153361
Ar              1.0225798              6.7803167              0.4662947
Ar             -2.6703369              2.5982581              4.1606003
Ar              8.3625857              0.2618996              0.2685017
Ar             -4.7040340              2.6190740             -1.8845286
Ar              0.1678446             -5.1863902             -0.8256380
Ar             -4.3123511             -3.4375890              5.4454481
Ar              3.6825048              3.7655074              5.5819049
Ar              5.4830898             -1.2513505             -1.9259992
Ar              5.1576510              2.0763076             -0.2263902
Ar             -0.2821624             -3.5973419              5.7502517
Ar             -4.4796239             -1.2081772             -1.8504389
Ar             -3.5840103             -4.7558376             -0.9982298
Ar             -5.5802426              0.1787511              4.1482732
Ar              0.6441170              4.3325742              3.3459096
Ar             -4.9233798             -2.6173795              1.7361605
Ar             -3.2764306              0.5713813             -4.8667061
Ar             -2.9162751             -0.0575367              7.0059271
Ar              4.2210003              5.3568972             -1.8957745
Ar             -5.6902312              3.5784439              1.9196911
Ar              2.2062007             -2.7461275             -3.2308358
Ar              6.6831922              2.3091332              3.1923634
Ar              0.4474017              0.0425808             -5.0986144
Ar             -7.1826980              0.2131324              0.4541913
Ar             -7.3129517             -3.4587362             -0.9889615
