42
Energy:            -187.1353
Ar             -0.2644039             -0.7545341              1.0119381
Ar             -2.8052967              0.1734351             -1.5010614
Ar              2.4694222             -0.7714635              3.6128110
Ar              1.3961265              2.3662789              2.0300219
Ar              2.1528358             -3.5003029              0.2969800
Ar             -1.4919013             -3.4298870             -1.0750317
Ar              3.8851923              3.5698215             -0.4580875
Ar             -4.8991849              0.4238263              1.5687753
Ar              0.5362535              1.9587424             -1.4909463
Ar             -4.3869236             -1.6998382             -4.2330890
Ar             -5.1250643             -2.7552063             -0.6882814
Ar              3.1830132             -0.0125156              0.0467346
Ar             -3.0642238             -2.6732117              2.3862865
Ar             -3.8303222             -5.3710928             -3.1714478
Ar             -2.0518198              2.7396764              1.0231111
Ar              0.4122876              5.3800398              0.1196768
Ar             -6.7431339              0.2847808             -1.8840065
Ar              5.4949352             -2.2154736              1.7518201
Ar             -1.0596134              0.7570487             -4.7099046
Ar             -5.1666982              3.4352358             -0.7618140
Ar             -0.5884788              4.8533821              3.8038706
Ar             -4.5551866              2.0872831             -4.3100955
Ar              1.8432305              4.8293141             -3.3696899
Ar              3.1969614              5.4194797              2.8213976
Ar             -1.4946896              3.1439892              7.0200341
Ar              4.7619498             -2.3979856             -2.2378361
Ar             -0.4397307             -5.3526282              2.0717988
Ar             -0.3102938             -2.8188867              4.8416960
Ar              1.8251326             -4.9811675             -3.0983539
Ar              1.1194417             -1.3996113             -2.6335786
Ar             -1.1082835             -3.2982640             -4.8470856
Ar             -4.0720943              3.2249329              4.0930669
Ar              5.0210271              1.8501605              2.7311055
Ar             -1.2227123              0.7733176              4.1610632
Ar              3.5214720              7.2568801             -0.6847774
Ar             -0.7853360             -7.0377171             -1.3688285
Ar             -2.0061271              4.2287893             -2.6288117
Ar              3.6826291              1.2503586             -3.4276910
Ar              2.9541739             -4.4819880              3.7688388
Ar              2.0400777              2.5486921              5.5733749
Ar              6.6087429              0.7889519             -0.7490007
Ar             -3.8279406             -5.9858763              0.6118283
