42
Energy:            -188.6461
Ar              0.9265070              0.8863535              0.4964457
Ar              2.0695422              0.2042726             -2.7683120
Ar              0.1379075              2.0664714              3.9078125
Ar             -2.4061854              0.0083911              1.7674301
Ar             -0.8203798             -2.6008735             -0.1873028
Ar              1.9814200              4.3073147              1.0781674
Ar              4.6034951              1.0947147             -0.2958867
Ar             -2.1179753              2.4886293             -5.0913452
Ar              3.5533089              0.4597593              3.1791928
Ar             -1.8229558              0.4395159             -2.0003795
Ar             -2.2089679             -0.5687190              5.4519937
Ar             -1.6657675              3.3165152              0.8044571
Ar             -0.2723362             -0.7825854             -5.3547179
Ar             -3.6537881             -5.1229537             -0.2302800
Ar             -4.6646990             -1.5649305             -0.6150293
Ar             -5.1766112              2.1108645              0.5459391
Ar             -0.2922366             -6.1395127             -1.4250795
Ar              0.1916467              3.5041817             -2.2992279
Ar              7.9339619             -0.0247299             -1.5510181
Ar              5.0315847             -2.2529696             -2.4513958
Ar             -5.5799985             -0.7153551              3.2832939
Ar             -5.2951126              1.2926553             -3.0758785
Ar              0.4786436             -1.5834787              3.1170598
Ar             -0.8969051              5.7009443              3.4435147
Ar             -0.0191325             -4.0214426              5.7365105
Ar              2.7533168             -2.1978762              0.3612893
Ar              3.4482295             -5.5816445             -0.7658142
Ar              0.7835895             -5.1033999              2.0516986
Ar             -3.4963321              4.4282940             -2.1288567
Ar              1.7971909              2.5584337             -5.5563426
Ar              1.4223097             -3.3509928             -3.1042199
Ar              1.6532230             -0.5503265              6.3849488
Ar             -3.5980986              2.7753274              3.9593984
Ar              3.7796663              4.0020902             -2.4166775
Ar             -2.4390312             -3.2084950             -3.3600528
Ar              5.3556608              1.1042961             -4.1803686
Ar             -2.7268574             -3.4740765              2.9954308
Ar              3.6074430             -3.2855527              3.9279116
Ar             -0.8074849              6.6603106             -0.3493556
Ar             -3.9584676             -0.8034744             -5.7924232
Ar             -4.2594478              5.7721857              1.4639369
Ar              6.2352285             -1.8608847              1.3900982
