42
Energy:            -187.9723
Ar              0.6066029              0.6910268              3.0753866
Ar              0.1793566              0.4885646             -1.9237468
Ar              1.9481674              3.6043436             -1.2694762
Ar             -0.3859600              0.4742474              6.6122681
Ar              3.2698314              3.3812947              2.3800500
Ar              3.8189032             -2.3091655              2.5210424
Ar              2.9008410              0.3900757              0.3162151
Ar             -2.1468123              0.6736012              0.7359926
Ar             -2.0415886              3.3678409             -1.9825702
Ar              0.2545824             -2.2624016              1.0002835
Ar             -0.3955886              3.7945676              1.4529197
Ar             -3.3358224             -5.6694381             -1.4712287
Ar              0.9752307             -2.5501744              4.8719404
Ar              5.5557650              2.7043576             -0.8847708
Ar              0.2171175              6.1447831             -3.3044067
Ar             -1.4420097             -2.6506375             -2.2915904
Ar             -5.0646797              0.8705708             -1.4201837
Ar             -2.6626335              0.3554640             -4.2633820
Ar             -5.0503947             -2.4995972             -3.1785835
Ar              0.4318882             -5.5439330             -0.8073209
Ar              3.4983007              0.5480303              5.1922209
Ar             -2.3808417              5.9699212              3.6605007
Ar              5.7873333             -1.4425180             -0.8831059
Ar              4.2133115             -4.9552554             -0.1063983
Ar              0.6204459             -4.8757624             -4.4898854
Ar              1.7327997             -5.4467074              2.6797501
Ar              0.6572666              3.8212385              5.0890264
Ar             -1.9657956             -5.0161537              2.1301288
Ar             -4.2076059              3.7773556              1.0546905
Ar              6.0215336              0.7354302              2.3264595
Ar             -2.0076443              6.6873116             -0.1836069
Ar             -5.4762723              0.3988891              2.3768651
Ar              2.3384657             -2.5054210             -2.0789803
Ar              0.7154939             -1.1358755             -5.1959279
Ar              3.8490160              4.4538417             -4.2810782
Ar             -2.4017468             -1.5266971              3.7283312
Ar             -3.9604589             -2.4282228              0.4049150
Ar             -2.4615005             -3.1244065             -5.8493662
Ar             -6.8638917             -4.5566299             -0.5375865
Ar              0.4940086              2.6827976             -4.8142201
Ar              3.5665008              0.7665668             -3.4087022
Ar             -2.6541701              2.2285662              4.1294081
