42
Energy:            -186.0153
Ar             -0.5323017             -0.3223919              0.0483192
Ar             -0.1976877              2.7338242              1.8787479
Ar              2.8149290             -1.3236323             -0.8182775
Ar              1.1472506             -3.0789809              1.8917296
Ar             -1.2445490              2.8473812             -1.6239213
Ar             -3.5051065              1.4030150              1.1518970
Ar              4.8094431             -2.4707218              2.0839907
Ar              2.3285858              2.3114683             -0.8050706
Ar             -0.1397410             -3.4358367             -1.6375013
Ar             -2.5973502             -1.7731514             -3.9672932
Ar             -1.0540115             -0.5074403              3.6654986
Ar             -0.8184090              6.1061236             -3.4562051
Ar              1.0286557              2.2581131              5.3078864
Ar             -4.1985967              4.7444110             -2.8533331
Ar              0.5888732             -0.0332068             -3.4410862
Ar              2.5152079              0.3955683              2.4032469
Ar              2.7869929             -3.1202894             -4.0301081
Ar              0.2083163             -6.4801101              0.6676069
Ar             -2.8924315              5.0963302              0.9155856
Ar             -4.4768153              1.0575455             -2.3850780
Ar             -0.1628856              5.8127403              3.7569699
Ar             -2.0434636              2.1734170             -5.1084491
Ar             -6.3084694              2.0861077              3.4913929
Ar              0.7855603              5.6927517             -0.0749987
Ar             -4.6954634             -1.3700547              3.2708017
Ar              4.3372300              0.5826381             -3.5430858
Ar              6.0551136             -2.5479833             -1.8721589
Ar              3.4071390             -5.8634159              2.8978632
Ar              3.1792907              4.0808366              2.4899013
Ar             -2.9951274             -5.6900905             -1.2365746
Ar              0.8936745             -6.6059505             -3.1312328
Ar             -2.3064890             -4.0934508              2.2540160
Ar              3.3024990             -4.9276014             -0.7280003
Ar              5.6357538              0.7948158              0.2109654
Ar             -3.7271301             -2.0508271             -0.4279010
Ar             -2.7380403              2.9200227              4.4915903
Ar              2.2294935             -1.9308075              5.2388804
Ar              8.3332964             -1.8154481              1.0253985
Ar             -6.8568268             -0.1330119              0.3862305
Ar              1.6018758              3.4040897             -4.2662750
Ar             -6.2799852              3.5795588              0.0001203
Ar              6.7267435             -5.3374997              0.7214493
