42
Energy:            -194.3412
Ar             -0.8269243             -0.7947743             -0.0523599
Ar              1.4059775              1.5019589             -1.6975629
Ar              1.4832704              1.1747893              2.0136827
Ar             -2.9168987             -3.0208564              1.8429684
Ar             -1.9621085              0.3651034              3.1886855
Ar              2.6763563             -1.6360971             -0.1227316
Ar              0.6154001             -2.3260254              2.9029998
Ar             -0.5295312             -1.1990786              6.2679125
Ar             -6.5078625             -2.0012238              2.2990876
Ar             -4.3272007              0.1714388              0.1595656
Ar             -0.0766173             -4.3517090             -0.3233304
Ar             -1.4608666              2.7330670              0.3518379
Ar              0.3558603              2.3833194              5.3374529
Ar              5.1012658              0.3321270              1.9455599
Ar              5.0451079              0.6800848             -1.8482048
Ar              3.7197313              3.8830414             -3.4419807
Ar              2.0824066             -3.9541810              5.9473019
Ar              0.7920342              5.1700968             -1.3611532
Ar              0.8608099              4.8137436              2.4309202
Ar              0.4537100             -1.9023108             -3.2691233
Ar              2.8168496              0.5002898             -4.9609949
Ar             -3.1410226              1.5679638              6.5458711
Ar             -2.1415906              6.4025449              0.7425084
Ar              2.9844185             -0.3798299              5.0437784
Ar              4.2214021             -3.2627909              2.8694624
Ar             -5.1511862             -5.2437111              3.8236539
Ar              6.3185260             -2.5297234             -0.2260098
Ar              3.8593470              3.1963367              4.1137243
Ar             -2.6551598              4.0023744              3.6556463
Ar              4.1290491             -2.7301433             -3.3396526
Ar              1.4454031             -5.9194324              2.7401177
Ar             -5.4778093              1.4213527              3.5430288
Ar             -4.9758706              3.8467165              0.6127938
Ar             -5.5518100             -4.8695130              0.0014601
Ar             -2.8087016              4.5917953             -2.5439121
Ar             -4.1269008             -1.8489798              5.2215410
Ar             -1.5160238             -4.6361030              4.8986185
Ar              3.5951140             -5.2043982             -0.3704656
Ar              3.7973428              3.5469983              0.3336478
Ar              0.1466559              3.3258351             -4.6554354
Ar             -3.1597087             -2.7578399             -2.0433589
Ar             -2.1915053              0.9007280             -2.9673942
