42
Energy:            -190.2335
Ar              0.3832177             -0.9031180              2.3762894
Ar              3.9986588             -1.3822597              4.4571048
Ar             -3.6646560              1.4733862             -2.9639414
Ar             -2.1853848             -1.1675690              5.0100672
Ar             -0.8018270              2.8143545              2.5226179
Ar             -1.3111120              6.4006858              1.2568929
Ar              2.7804631              1.8253805              2.9667900
Ar             -1.9054817             -3.3112734              0.0827408
Ar              3.7411511              0.2537102             -2.7657545
Ar              0.9215076             -1.6352504             -1.2303845
Ar             -1.9269501             -2.0332545             -3.4864116
Ar              1.0653411              0.4414338              5.8792406
Ar             -2.2352190              0.3127077              0.1286521
Ar             -5.0492095             -2.2596479             -1.5316195
Ar             -4.5839922             -1.9891886              2.2140320
Ar              5.0495038              4.6668874              3.4027032
Ar              1.2662063              1.7178597             -0.2694659
Ar              3.8859825             -0.8759713              0.7889488
Ar             -4.1469469              1.4681632              3.3030671
Ar              1.4372781             -4.3044094              1.3546594
Ar              2.6944447              3.9544029             -2.8189420
Ar             -4.8425748             -5.4619556              0.8326826
Ar             -2.0895952             -4.6391152              3.4503830
Ar             -1.9091255              2.5843588              6.1082629
Ar             -6.0697770              0.8605648              0.1254812
Ar             -0.9180585              4.1758981             -1.8078942
Ar              0.4339628             -5.0810434             -2.3542145
Ar             -3.5797876              5.1114144              3.9033050
Ar              0.1174323              1.0846433             -3.7146554
Ar              5.0951060             -4.1382124              2.0615886
Ar              4.4633349              2.1046747              6.2055117
Ar              1.3755609              4.4432660              5.0710494
Ar             -3.8033408              3.7449789              0.3460322
Ar              1.7242118             -2.3409541             -4.7257517
Ar             -6.9169636              3.8354129              2.4392784
Ar              4.8935465              2.7015412             -0.0114998
Ar              0.9729691             -3.3736515              5.0958428
Ar              3.9252100             -3.6852982             -1.6752033
Ar             -1.2908170             -6.9221105              0.4763944
Ar              6.4274683              1.0633813              3.0055837
Ar              2.0851027              5.0071426              1.0745773
Ar             -3.2885196             -5.4969551             -2.6070008
