42
Energy:            -190.7931
Ar             -0.8003465              1.3207138              0.0270375
Ar              2.5243654              2.2397381              0.8843629
Ar             -4.0348835             -0.2528648             -0.6287953
Ar             -1.2502793             -2.5726217              0.2105604
Ar              1.1577381             -1.6633826              2.7926191
Ar              0.0397511              4.9647732              2.0048772
Ar              4.9243484             -0.1567459             -3.3163539
Ar             -3.1498320              3.0852272              2.3575792
Ar              1.9710867             -1.0937630             -0.7378090
Ar             -4.7120733             -3.2244981              1.5673610
Ar             -2.4225846              2.5455155             -2.9782297
Ar              5.4015585             -0.0636542              0.3297834
Ar              1.8623611             -5.0988040              4.2972953
Ar              1.6679669             -4.7284310              0.6016998
Ar             -0.1949719             -4.6851217             -2.6382317
Ar              2.9994590             -2.0709435              6.1097886
Ar              1.5180187              1.4431478             -3.3461130
Ar              3.4585825              5.8759653              0.7466962
Ar              2.9769734              4.1611584              4.1862440
Ar             -2.1565273             -6.0781063              0.3930162
Ar              2.0698449             -2.2572362             -4.3285209
Ar             -2.4605429             -0.5048755              2.7967119
Ar             -4.5019891             -2.0547301              5.3433050
Ar             -1.0752551              0.8859144             -6.1173077
Ar              0.2091087              1.6958895              3.6526373
Ar              1.8671407              1.5355462              6.8717389
Ar             -0.6724333             -1.2702252              6.0010042
Ar             -2.6559796              5.3975770             -0.5484210
Ar             -1.1684076             -1.0308348             -2.9898208
Ar              4.6028043              3.2963560             -1.8763126
Ar              3.9953696              0.5804251              3.7840673
Ar             -5.9501402              0.4887580              2.5702525
Ar             -5.5594808              3.0458601             -0.5563688
Ar             -3.8509870             -3.6371963             -2.2190512
Ar              0.8004279              4.5097034             -1.5898471
Ar              4.5262568             -3.0152080              2.4379105
Ar              5.9474822              3.3003302              1.8910531
Ar             -4.5151365             -0.3160916             -4.3611710
Ar             -1.6512766             -4.0698658              3.6109069
Ar             -3.0545256              1.6016083              5.7815570
Ar              4.6228705             -3.4872000             -1.4518987
Ar             -0.5787218              4.5464032              5.7619844
