42
Energy:            -190.6545
Ar              0.9558850             -0.8917907             -0.8547578
Ar             -1.2990756              1.2703281              0.9142306
Ar             -0.0412107             -1.9966309              2.7028247
Ar              3.4125115             -2.7389670              1.5026736
Ar             -0.1808972              2.2706068             -2.7276673
Ar              0.5537166             -4.7802225              0.2845178
Ar              2.1510770              2.7803901             -0.2072299
Ar              2.2312222              0.6207820              2.5092549
Ar             -0.6607172              1.0017362              4.8098658
Ar             -2.3710862             -2.5228225              0.1816083
Ar              5.5250799             -0.2396201              3.7321436
Ar              4.7074724              3.3666665              2.4052680
Ar             -2.4509808             -0.3611675             -2.5417705
Ar              5.0488057             -3.9174853              4.6575679
Ar             -4.3517396              2.9629536              1.9914290
Ar              2.9852359              2.2506151              5.6757550
Ar              5.4048578              3.9273317             -1.3685231
Ar             -1.3481791             -2.6612183              6.0261367
Ar             -3.5542004             -0.8940915              3.2949233
Ar             -4.8920770             -3.1378367             -2.4697901
Ar             -2.6296415              1.8710655             -5.4742168
Ar              2.2944069             -1.5129777              5.5272692
Ar             -3.6482843              3.0266992             -1.7701001
Ar             -1.5731702              5.3329288             -4.1119560
Ar              3.3409946              1.2855202             -3.3763789
Ar             -0.9221658             -3.7150660             -3.0094147
Ar             -7.2324380              2.8341700             -0.8149210
Ar             -3.1378276             -1.9551867             -5.7230248
Ar              1.0469113              2.9398302             -6.0764113
Ar              3.6630831             -2.5329627             -2.5454324
Ar              1.4277104             -5.0052561              4.0838102
Ar              2.8143046              6.2600933              0.5894324
Ar              0.5018667             -0.7333567             -4.7823286
Ar             -3.0363023             -6.0033588             -0.6289251
Ar              2.1397142              5.1303320             -3.0608939
Ar             -2.3320850             -4.8795473              3.0287315
Ar              0.7638626              3.9949774              3.0023519
Ar             -5.8068032              0.4872601             -3.7140296
Ar             -0.8210130              4.9997417             -0.2802394
Ar              4.8841281              0.2881906             -0.0921253
Ar             -5.6099267             -3.6807889              1.3519120
Ar             -5.1245030             -0.1154522             -0.0178043
