42
Energy:            -186.6709
Ar             -0.0791514              0.0085076             -1.4939878
Ar              5.2534425              0.7192796              3.1314325
Ar             -2.5786915              2.5991762             -0.5883914
Ar             -4.6853295              0.1171578              1.3031058
Ar              2.4016540             -2.7070971             -2.3593286
Ar              0.7833821              3.5658377             -1.7593690
Ar             -1.0423653              0.6618329              2.0919476
Ar              1.4606447             -2.0052341              1.1933201
Ar             -1.7398556              1.8859663             -4.2258515
Ar              0.3295578              7.0825479             -0.7200245
Ar             -0.1511824              4.2552830              1.8100232
Ar              4.8581589             -1.1842499             -0.0729769
Ar             -2.0871044             -2.4148065              0.3985526
Ar             -3.1586502              6.1313300              0.4428733
Ar              5.8365944             -3.0378408              2.9638175
Ar             -0.1572305             -5.3468328              1.7702513
Ar             -2.1592687              5.4189261             -3.1221158
Ar              0.7214798             -5.9800792             -1.7727708
Ar              2.3498457              1.5371504              0.9048323
Ar              2.4410164             -3.9176730              4.2093524
Ar             -0.6562388              2.6181539              5.2232329
Ar             -3.5198341              0.0921192              4.8828007
Ar              4.1457627              4.6555136             -2.9438696
Ar             -3.8482882             -4.6448565              2.7505283
Ar              3.3187539              0.9694548             -2.7086054
Ar             -3.8302963             -0.5341288             -2.3043775
Ar             -3.6210177              3.3412525              2.9578099
Ar             -1.2187192             -3.0904284             -3.1465306
Ar             -1.0303600             -2.5154495              4.0436520
Ar             -5.7003823             -3.1630431             -0.2149320
Ar              3.5520717             -4.9245292              0.5768441
Ar              0.8733135             -0.6300551             -5.1028631
Ar             -5.2086673              2.9808563             -3.1231773
Ar             -4.7666760             -3.9681933             -3.7487525
Ar             -2.9570290             -5.7469904             -0.8618635
Ar              3.2921976              5.1666920              0.6719841
Ar              2.8372882              3.5089371              4.0365130
Ar             -1.9765867             -6.5269011             -4.4324841
Ar              4.6930903             -1.5089577              6.2058011
Ar              1.6164036              3.1141986             -5.3508672
Ar              5.7715068              2.4853852             -0.2300162
Ar              1.8071893             -0.0982670              4.3397129
