42
Energy:            -194.9682
Ar              0.2494069             -0.9331626              1.2606088
Ar             -1.7031897             -0.0723100              4.2080386
Ar             -3.0531903              0.4112331              0.6578928
Ar              2.9105133              1.3314042              0.3333634
Ar             -0.2691478              2.5961477              1.8452314
Ar              3.6374419             -2.1970602              1.6681175
Ar              0.7869338             -4.4414828              0.4874666
Ar              2.0777039             -1.6296255             -1.7810302
Ar             -0.2560186              1.2591656             -1.6376173
Ar              2.1299937              0.5473396              3.9763501
Ar             -3.6451802              2.6513383             -2.2831357
Ar             -0.7784871              3.5047038             -4.6146538
Ar             -5.0344213             -0.8963142             -2.2201433
Ar             -2.1566058             -0.0374727             -4.5507458
Ar              2.4539319              3.5983516             -2.6231898
Ar             -0.8062813              6.2626585              2.4533493
Ar              1.6079512              0.5611597             -4.7809194
Ar              4.8535005              0.6529468             -2.7891044
Ar             -1.6023371             -2.2274324             -1.5516876
Ar             -2.5389600             -3.1173193              2.0683402
Ar              0.1702456              1.6738798              6.9523059
Ar              2.4423650              4.9924429              0.9147384
Ar              5.6932078             -0.5223296              4.3260244
Ar              6.4033993              0.1830171              0.6695449
Ar              5.6742112              3.6847585             -0.6280862
Ar             -2.2515660              3.6259982              4.7849681
Ar              0.2307360             -2.9915664             -4.7221816
Ar              4.8803744              2.9422571              3.0171729
Ar             -1.1423697             -5.7676071             -2.4902995
Ar             -5.9692867             -1.7437853              1.3963346
Ar             -3.6677688              4.0425779              1.2629052
Ar              5.5521223             -2.8776397             -1.4867406
Ar             -3.5289524             -3.5707478             -4.4809241
Ar             -4.4873918             -4.4361597             -0.9010699
Ar              0.7723734             -3.0738618              4.1521419
Ar              1.6238976              4.2370765              4.5656879
Ar             -5.1129341              1.3636696              3.5838802
Ar             -6.4956568              1.7869485              0.0584145
Ar             -0.7937844              4.8905011             -1.0787596
Ar              3.9875575             -2.3843398             -4.9254049
Ar              2.6433314             -5.1697609             -2.6950054
Ar             -2.1534579             -6.7019167              1.0393098
