42
Energy:            -188.7064
Ar              0.0834450              2.7617122              0.4251646
Ar             -1.0774446             -2.2256941             -0.6853948
Ar              3.0475137              0.7642564              0.9070968
Ar             -2.5521427              1.0832831             -1.4856898
Ar              1.0346448              0.3288841             -2.0433845
Ar             -1.8932604              0.2243835              1.9863131
Ar              0.9763424             -1.7862730              2.3384116
Ar             -3.6348410             -4.8098283             -0.9042208
Ar              4.7745950              0.2160782             -2.4175200
Ar             -2.4059457             -3.4524061              2.5647958
Ar             -4.7447700             -1.4419490              0.3555761
Ar              4.9629910              1.3425558              3.9058744
Ar              2.8015008             -2.5394936             -0.6946324
Ar              2.4253876              1.6783684             -5.1389514
Ar              4.8054411              6.3904587             -0.3566441
Ar              3.0077872              4.2793282              2.1308920
Ar              0.8397844              6.2203598             -0.4789242
Ar              5.7082119             -3.4445526             -2.7050388
Ar             -6.2044273              1.1388946             -1.9842683
Ar              6.0922481              2.7019292              0.3649358
Ar              0.7002084             -5.1553061              0.8160787
Ar             -4.8403745              2.2644119              1.4453900
Ar             -2.8206343              4.7552286             -0.5707078
Ar             -0.8611585             -3.9475065             -3.8685133
Ar              6.0655341             -1.2965284              0.8264860
Ar             -1.1093106             -1.1727820              5.3676135
Ar             -0.4047271              3.5468519             -3.2875632
Ar             -2.2789691             -7.1253171              1.8036935
Ar             -3.9606860             -1.8039725             -3.2931281
Ar              2.8033088             -1.4200821              5.4482556
Ar              3.9318906             -3.9085737              2.6459108
Ar             -0.9922711             -0.2264676             -4.9545931
Ar             -0.9350717             -7.1895692             -1.8504606
Ar              1.0028753              1.6613482              3.9365382
Ar              2.3730035             -5.5645925             -2.6944802
Ar             -4.7397603             -0.7408825              4.0853123
Ar             -0.7399472              5.1627877              2.9795506
Ar             -3.7837841              2.3057722             -4.7056931
Ar              2.4309330             -2.1265831             -4.4118764
Ar              0.5875055             -4.6322097              4.6033883
Ar             -2.6698111              2.4281848              4.7765771
Ar              3.0403698              3.4466513             -1.7609207
