42
Energy:            -186.1279
Ar             -0.1786258              0.5283841             -1.2225478
Ar              1.1210526             -2.0641691              1.2112422
Ar             -0.2696557              3.5755345              1.0557046
Ar             -3.2936447              1.8251449              0.3059749
Ar              0.5497005             -2.9679284             -2.1693547
Ar             -0.9981952              0.3761768              2.5684977
Ar             -2.5322942             -2.0221684              0.0343753
Ar              3.4024618             -0.6293967             -1.3579722
Ar             -1.5210969              3.7993002             -2.3962649
Ar             -2.8979801              3.2351242              3.8460996
Ar             -3.6334975              0.7251913             -3.0935167
Ar              5.8355419              1.5861864              0.4998239
Ar              2.3598276             -4.5458823              3.5442763
Ar             -4.5232562             -0.3609997              3.0832697
Ar              4.6186017              1.8075759              4.3481830
Ar             -5.4204329              3.8723782             -1.8388365
Ar              3.0457877              4.8586949              2.0285693
Ar              2.3751818              1.2628992              1.5804055
Ar              4.6051652             -1.5652703              2.3140922
Ar             -0.3631886             -5.3193768              0.6574772
Ar             -2.2034576             -5.2770243             -2.7101402
Ar             -1.7887260              0.1855427              6.0702889
Ar             -1.9390482             -2.0453888             -4.7178721
Ar             -3.2854234              7.0803756             -2.4962220
Ar              2.3827473              3.2302419             -1.5648408
Ar             -6.2590714              3.0863185              1.9648989
Ar             -5.0236632             -2.7796231             -2.6604137
Ar              3.9331167             -3.4709292             -3.6981818
Ar              1.7454541             -0.8716899              4.7156543
Ar              6.5337955             -2.5226667             -0.7548207
Ar             -6.2891485             -0.0755607             -0.3635516
Ar              3.3988679             -4.4953068             -0.1456115
Ar              0.0974831              6.7833770             -0.5524574
Ar              0.8590280              2.8787455              4.6103423
Ar              1.4684924             -0.3272202             -4.5597560
Ar              6.0962890             -4.9726823              2.3643479
Ar              1.4640817             -6.5251235             -2.5941406
Ar             -1.3244259             -8.5557890             -1.0215365
Ar              0.8041791             -4.3594059             -5.6122678
Ar             -1.4340814             -3.0825589              3.6933514
Ar             -3.3678922              5.5395193              0.8997869
Ar             -0.4608449              6.3232038              3.3971049
