42
Energy:            -190.0598
Ar             -0.8220378              0.2344942              1.2844669
Ar              0.7159504              3.5560044              2.1443750
Ar             -3.8708345             -1.0877077              3.0428499
Ar              2.5762121              1.2370419              0.1732385
Ar              1.7450282             -2.2910706              0.3977427
Ar             -2.5855378              5.0800822              1.3241759
Ar             -1.7745404             -2.7490976             -0.8036821
Ar              0.4927783             -0.3635247             -2.3256508
Ar              2.2618009              4.9791784             -1.0075297
Ar             -0.7627967             -3.0629440              2.8236506
Ar             -1.2746593             -0.6466237              5.6693087
Ar             -0.7215172              2.8725884             -1.2526341
Ar              0.3405571             -5.6875460              0.3275921
Ar             -3.6703188             -4.8709745              1.5684964
Ar              1.5870368             -3.9249404             -2.8781363
Ar              5.5570906              3.2630414             -0.1591649
Ar              3.8175462              5.6991351              2.3290218
Ar              1.0039394              2.3891782              5.6100208
Ar             -3.1591155             -4.0294532              5.4095765
Ar             -1.2540502             -2.4408542             -4.8008669
Ar             -5.3444339             -1.7323865             -0.2243241
Ar              0.4955075              7.2538606              1.5016975
Ar              2.9607819              2.1408479             -3.4085484
Ar             -2.4401888              2.3649195              3.8641776
Ar             -0.8181109              5.6926292              4.7328000
Ar             -4.0573841              1.7906386              0.4415614
Ar             -4.5368269             -3.4314942             -3.3876942
Ar             -1.6718199             -5.8222727             -2.8794641
Ar              0.6926698             -3.7611016              6.1680824
Ar              4.2304017             -1.2233937             -2.1403923
Ar              5.0414324             -1.2482403              1.6302547
Ar             -1.2467886              6.5938635             -1.7638253
Ar              4.1877852              2.1638442              3.3595963
Ar              2.2971482             -1.0959808             -5.4371194
Ar             -0.6777625              1.3745526             -5.2927972
Ar              1.9228438             -0.7217249              3.7239470
Ar              0.5121216              4.7542442             -4.4047491
Ar             -3.1469611              0.1439621             -2.7271923
Ar              4.3614298             -4.6947845             -0.3460703
Ar             -0.6692612             -6.5560657              3.8693925
Ar              2.7422096             -4.5024060              3.1272971
Ar             -3.2330832              3.8442773             -3.6969998
