42
Energy:            -194.7022
Ar              0.9222740              0.0646723              4.0550977
Ar             -3.7018556              2.2310331              5.4364898
Ar              0.0303502              0.6927453              0.5576147
Ar              1.8570849             -0.5568380              7.6379878
Ar              1.0702590             -1.8607352             -1.8187934
Ar              3.1814301             -0.9045256              1.2504818
Ar             -0.9523999              1.2139809             -2.9116178
Ar              0.0994212              4.1568368             -0.5365153
Ar             -5.3320075             -1.2008564              5.2668559
Ar              0.8885908             -3.4252720              5.3404459
Ar             -1.7447907             -0.8835431              6.4680192
Ar              6.0539994             -0.0528454             -0.9073551
Ar             -2.5981196             -0.2410515              2.8835832
Ar              1.0100102             -5.4029508             -0.5365134
Ar             -0.9748965              3.1073344              3.0310462
Ar              3.2076269             -4.4375797              2.4778957
Ar              6.4751515             -2.5560472              1.9407442
Ar              4.1780823             -1.5650572              4.7987859
Ar             -0.0871150              2.5508278              6.6255753
Ar             -5.9225862              1.2894284              2.4314039
Ar             -0.9138346              6.6749008              2.0798177
Ar             -3.2049614              2.2674860              0.0124891
Ar             -2.0241015              5.6469080              5.5819878
Ar             -2.7148356             -3.7478263              4.1566878
Ar              2.6200166              2.7160997              2.0435875
Ar             -0.0228623             -2.7268526              1.7809168
Ar              5.4744293              3.6697325             -0.0907701
Ar             -4.2643620              4.7524523              2.6204312
Ar             -5.9418085             -0.0289803             -1.1597166
Ar              2.7830329              6.2694820              1.0656248
Ar              3.5925877              2.1457942              5.5987915
Ar             -5.2875921             -3.7329198             -1.8871811
Ar             -1.6485289             -4.1746738             -2.9978916
Ar              4.3366737             -3.5513926             -1.0639043
Ar             -3.6949018             -1.0916454             -4.1219015
Ar             -2.6885551             -5.0188662              0.5659142
Ar             -2.5675404             -1.4743701             -0.6254814
Ar              5.9257723              1.1341748              2.7477960
Ar             -0.0824253             -6.2672420              3.0197663
Ar              2.7516143              1.5947560             -1.6745626
Ar             -5.3273121             -2.4721357              1.6952029
Ar              1.6412205              5.2688680              4.5846738
