42
Energy:            -193.6348
Ar             -0.8844139              0.7306760              1.8508029
Ar             -0.5170292             -2.6630217              0.6553441
Ar             -1.2499571              3.1523096             -0.7986042
Ar              4.6256193              0.1317741              4.7883533
Ar             -4.1844020              2.2288086              1.5293703
Ar             -1.1640693              4.1919983              2.9244367
Ar              1.9538391              2.8303745              1.0905175
Ar             -3.7096054             -1.4915844              2.4158052
Ar              0.9189922              0.1761990             -1.3016627
Ar              2.7842443             -0.4169821             -4.5220802
Ar             -3.2974353             -5.0353036              1.1368767
Ar             -0.9955343             -0.8184015             -4.3331215
Ar              2.8500541             -4.2536566              0.7866682
Ar             -2.7659079             -0.2464475             -1.0785129
Ar             -1.6479375              5.6903849             -3.5329407
Ar              1.2931355             -3.2769860             -2.5597545
Ar             -4.5605760              4.7297979             -1.2646848
Ar              4.3049796             -1.3193854             -1.1886536
Ar             -5.6404149             -2.5394170             -0.6235737
Ar              0.5659687              2.6513495             -4.0443740
Ar              3.8397727              2.3339662             -2.1106614
Ar              1.6275189              5.3904200             -1.6095707
Ar              2.4128175             -0.7592257              1.9756997
Ar              0.0661748             -5.3758018              3.0872015
Ar              1.1912520              1.6907969              4.6910241
Ar             -2.4564284             -3.7406324             -2.3572633
Ar             -1.5116247              6.7144798              0.1419806
Ar             -3.0886165             -4.2811817              4.8559255
Ar             -0.0978352             -6.1842457             -0.6185387
Ar             -4.7541634             -1.2493973             -4.1007227
Ar             -6.1219193              1.2237197             -1.5415609
Ar              5.3931311              1.3713008              1.2453177
Ar             -0.3322723             -1.8063914              4.3680341
Ar             -3.2189886              2.2306154             -3.8359835
Ar              4.7061328             -4.8399861             -2.4310245
Ar              1.7891955              6.3826522              2.0894362
Ar              5.8285764             -2.3254683              2.1090957
Ar             -2.6695756              1.1995733              4.9891106
Ar              3.0531714             -3.4098276              4.4952445
Ar              4.8930664              5.0372159              0.3278239
Ar              0.2272120             -4.6088307              6.7862036
Ar              4.1616677              3.8513056              3.8780812
