42
Energy:            -193.3953
Ar             -0.4707349             -1.2863334              0.8254290
Ar              1.5845459              1.0496885              2.7591440
Ar              2.6709011             -0.1984976             -0.5792279
Ar              1.3138087             -3.7931808             -1.1102186
Ar             -3.4100382              0.2024781             -0.6230718
Ar             -0.4427487             -1.6043568              4.4101620
Ar              2.8468548              0.3887505             -4.2428044
Ar             -3.6029760             -2.5291019              6.1086305
Ar              2.5500762             -2.5356254              2.3488433
Ar             -3.3673518              0.9205082             -4.2813467
Ar              4.6023570             -2.6477770             -2.5486187
Ar             -3.6245326             -2.2448985              2.3683203
Ar              2.4769419             -5.9629170              3.7103729
Ar             -2.1393358              1.2816948              2.7591671
Ar              1.8916876              4.5753753              1.6261470
Ar             -6.6859961             -0.5472262              0.9675624
Ar             -0.3831414             -0.7849960             -2.7600873
Ar             -0.6728940             -4.6904879              2.0738910
Ar              4.8405497              2.1645153              1.3489802
Ar             -6.4276369              1.8046838             -2.0859893
Ar              3.0148635              3.3192810             -1.7913841
Ar             -0.0851070              3.6859509              4.7743142
Ar             -2.1622976              0.9882581              6.4781488
Ar             -0.2067813              2.1525891             -0.3139019
Ar              5.9364693              0.8944538             -2.0615457
Ar              2.6277966             -2.9372149              6.0591166
Ar             -1.9056401              4.8400100              1.6404647
Ar             -3.1862620              3.7802175             -1.7938167
Ar              4.4941755             -5.0500905              0.4733232
Ar             -5.3398244              0.4412488              4.3896675
Ar             -0.1009238              2.8202686             -3.9349651
Ar             -2.6046995             -3.4941538             -1.1489639
Ar             -5.1638413              2.8947330              1.3518639
Ar              4.7012904             -0.2311517              4.3403826
Ar             -0.4236382             -1.9722900              8.1411673
Ar             -0.2957496             -0.0206506             -6.4167813
Ar             -3.8719874              3.9336733              4.7728042
Ar              3.7095613              3.4203466              4.7539727
Ar              5.8346874             -1.4916233              0.9138470
Ar              1.6467093              0.7279808              6.4617019
Ar              0.0686859              5.7164972             -1.4909966
Ar             -0.6021228             -5.0074441              5.8309098
