42
Energy:            -188.9272
Ar              0.0933140              0.4237501             -0.2575111
Ar             -1.1911945              3.7328049             -0.9012784
Ar              0.1335969             -2.4727204              2.1193895
Ar             -0.5157647              0.9853117              3.4147568
Ar              0.7587107              1.8995980             -3.6217401
Ar             -2.6222507             -2.0394928             -0.3210869
Ar              3.5519498              1.5140366             -1.1576631
Ar             -3.2730269              1.3487896              0.9657468
Ar              2.7706064              0.0608947              2.1373531
Ar             -3.5238570              4.9984083              1.7115507
Ar             -3.8404694              2.3100382              4.4859806
Ar              1.6400472              3.4623474              1.4579759
Ar              2.5982012             -2.1926654             -0.7134030
Ar             -0.1243141             -4.7824458             -0.8484146
Ar             -2.7001404              0.8729567             -2.6688120
Ar             -2.2782882              4.1077951             -4.4275545
Ar              2.1201699              5.0105820             -1.9070788
Ar              2.6453822              2.4251148              4.9516980
Ar              3.7996598             -3.4157973              2.7019065
Ar             -3.8646130             -2.3988143             -3.8865110
Ar              6.6820193              0.3328365             -2.7974919
Ar              3.3180178             -0.8416807             -4.1077056
Ar              1.0536371             -6.0406962              2.5382219
Ar              5.9460345             -0.9727485              0.6670429
Ar             -5.8765324             -0.2971104             -1.2428987
Ar              5.3458502              2.6467782              2.0269812
Ar             -2.9887073              6.8335690             -1.6784190
Ar             -1.5626190              0.1800454             -6.0878582
Ar             -0.1926605             -1.8351889             -3.1964173
Ar             -3.2856510             -1.4998541              3.3899781
Ar             -6.4828543              0.3194880              2.4635199
Ar             -4.9661427              3.5645666             -1.5312586
Ar              5.7261856             -3.3079447             -2.3295537
Ar             -2.5955708             -5.0083584              2.0630879
Ar              3.5590669             -5.7398808             -0.2876352
Ar              2.3832288             -4.5171550             -3.6914017
Ar              1.7742787             -1.3962868              5.3547431
Ar              5.4606360             -0.3639531              4.5306711
Ar             -3.8624811             -5.3261813             -1.4895782
Ar             -0.6777394              4.5994570              4.1386398
Ar             -0.1473593              6.7369289              0.9590305
Ar             -5.8220434             -3.2271839              1.1285955
