42
Energy:            -186.8775
Ar              0.9755569             -0.1379429              1.4091170
Ar             -1.8132320              2.3385269              2.1551241
Ar              1.9721030              3.4244673              1.0489171
Ar             -2.1989699             -1.4921142              2.1751451
Ar              0.5286868              1.6808696             -4.7719827
Ar             -0.3699115             -1.1585050             -1.8892717
Ar              0.2228660             -3.8820033              0.7285406
Ar              3.1186391             -2.4911944             -1.0794074
Ar             -3.1419667             -3.4199709             -0.8501630
Ar              2.5466046             -0.0578633              4.7379118
Ar             -0.7613427              2.4690086             -1.3447236
Ar             -2.6183995              4.0298196             -4.1253928
Ar              2.5297975              1.0589215             -1.7445094
Ar              3.3727920             -2.9482187              2.5866441
Ar             -0.1204944             -4.6176002             -2.9923459
Ar              0.8716909              3.2955543              4.5947790
Ar             -2.9077290             -5.0775149              2.5470937
Ar             -3.6360009             -3.2993270             -4.4789417
Ar             -4.7151297              0.6699603              3.8016222
Ar             -3.9835918              4.0694652             -0.5468323
Ar              3.0757049             -1.2219878             -4.5760324
Ar             -3.5847952              0.3525572             -0.5075894
Ar              0.1266341             -3.1936048              4.4426498
Ar              4.5533341              0.4044741              1.1913100
Ar             -2.8899888              0.3373945             -4.0821286
Ar             -6.8185506              1.4514133              0.6947945
Ar              5.9739966             -0.1811412             -2.2596157
Ar             -3.7097820             -2.6447636              5.3240844
Ar              6.5710050             -2.6496586              0.6222529
Ar              4.5954002              2.9759464              3.7997692
Ar             -5.7427164             -2.2021825              1.6008797
Ar              6.1960254             -0.9064195              4.1990343
Ar             -6.1992566             -1.5918119             -2.1480052
Ar             -5.2798823              4.2162357              2.8866288
Ar              1.9533126              4.6224020             -2.6672667
Ar             -5.9540952              2.0938120             -2.9978206
Ar              5.2334281              3.4341466             -0.9512134
Ar             -2.8094004              3.5258798              5.6143988
Ar              4.3608692              2.3992001             -4.6334783
Ar             -0.3828553             -1.9126977             -5.6529209
Ar             -6.0640343             -0.5894414             -5.7773768
Ar             -1.1601747              0.2132447              5.2431726
